@<TRIPOS>MOLECULE
image0
 1056 1160 0 0 0
SMALL
GASTEIGER

@<TRIPOS>ATOM
      1 TI         -2.9034    2.3669   11.5368 Ti      1  UNL1        0.0000
      2 TI          8.0981    5.4500    1.8452 Ti      1  UNL1        0.0000
      3 TI          1.6425   -0.9341    9.6194 Ti      1  UNL1        0.0000
      4 TI          3.5048    8.7498    3.7585 Ti      1  UNL1        0.0000
      5 TI          1.8156    9.6262    1.8002 Ti      1  UNL1        0.0000
      6 TI          3.1315   -2.0876   11.5819 Ti      1  UNL1        0.0000
      7 TI         -1.4634    1.0675    9.6315 Ti      1  UNL1        0.0000
      8 TI          6.3902    6.4915    3.7025 Ti      1  UNL1        0.0000
      9 H           3.7179    1.7508    7.1186 H       1  UNL1        0.0000
     10 H           0.0577   -3.9334    7.4433 H       1  UNL1        0.0000
     11 H           5.1339   11.5481    5.9705 H       1  UNL1        0.0000
     12 H          -2.9087    6.3867   11.3581 H       1  UNL1        0.0000
     13 H           7.9433    1.3201    2.1665 H       1  UNL1        0.0000
     14 H          -6.6519    0.7381   11.2168 H       1  UNL1        0.0000
     15 H          11.7657    6.9434    2.0058 H       1  UNL1        0.0000
     16 H           3.3780   -6.2437   11.2866 H       1  UNL1        0.0000
     17 H          -2.0804    8.2270    2.0958 H       2  UNL2        0.0000
     18 H           4.8419    3.7101    6.0204 H       1  UNL1        0.0000
     19 H           0.0965    4.0384    7.4369 H       1  UNL1        0.0000
     20 H          12.3853   -1.7163    7.2727 H       1  UNL1        0.0000
     21 H          -2.0618    0.7364   13.2896 H       1  UNL1        0.0000
     22 H           7.0600    6.9052    0.0226 H       1  UNL1        0.0000
     23 H           0.5205    0.7403   11.1883 H       1  UNL1        0.0000
     24 H           4.4334    6.9994    2.1610 H       1  UNL1        0.0000
     25 H           3.7338   -2.2796    6.1305 H       1  UNL1        0.0000
     26 H           1.3521    9.9019    7.2704 H       1  UNL1        0.0000
     27 H          -5.9553    4.1579    9.1482 H       1  UNL1        0.0000
     28 H          10.9588    3.5176    4.3122 H       1  UNL1        0.0000
     29 H          -3.5060    2.5108    6.0229 H       1  UNL1        0.0000
     30 H          -1.1052   11.8092    4.3009 H       1  UNL1        0.0000
     31 H           0.0362    6.2325    6.5178 H       1  UNL1        0.0000
     32 H           1.4418    7.0007    5.8096 H       1  UNL1        0.0000
     33 H           1.6428   12.8452    2.5806 H       1  UNL1        0.0000
     34 H           7.9236   -0.7310    3.3716 H       1  UNL1        0.0000
     35 H           7.5431   -0.2139    9.9996 H       1  UNL1        0.0000
     36 H           6.2003   -1.0252   10.7782 H       1  UNL1        0.0000
     37 H          -5.9996    9.1210    6.3064 H       1  UNL1        0.0000
     38 H           8.6307    8.3816    5.5086 H       1  UNL1        0.0000
     39 H           8.1620    5.4777    8.5733 H       1  UNL1        0.0000
     40 H           7.6543    5.7379    6.9126 H       1  UNL1        0.0000
     41 H           7.1256   -4.8428    9.5610 H       1  UNL1        0.0000
     42 H           5.7894   -3.8544   10.1283 H       1  UNL1        0.0000
     43 C           8.7910    4.9588    4.6873 C.3     1  UNL1        0.0000
     44 C          -3.7564    2.7231    8.7224 C.2     1  UNL1        0.0000
     45 C           4.0098   -2.5101    8.7387 C.2     1  UNL1        0.0000
     46 C           1.0451   10.1733    4.6390 C.3     1  UNL1        0.0000
     47 C           9.6330    4.3926    5.7515 C.ar    1  UNL1        0.0000
     48 C          -4.6567    3.2925    7.6825 C.2     1  UNL1        0.0000
     49 C           4.8563   -3.1653    7.7281 C.2     1  UNL1        0.0000
     50 C           0.2036   10.7964    5.6993 C.ar    1  UNL1        0.0000
     51 C           9.3408    4.5844    7.1416 C.ar    1  UNL1        0.0000
     52 C          -4.3792    3.0879    6.3136 C.3     1  UNL1        0.0000
     53 C           5.9486   -4.0237    8.0840 C.3     1  UNL1        0.0000
     54 C          -0.8811   11.6301    5.3487 C.ar    1  UNL1        0.0000
     55 C           0.5102   10.5495    7.0332 C.ar    1  UNL1        0.0000
     56 C           4.5710   -2.9345    6.3623 C.3     1  UNL1        0.0000
     57 C          10.7718    3.6429    5.3762 C.ar    1  UNL1        0.0000
     58 C          -5.7693    4.0235    8.0844 C.3     1  UNL1        0.0000
     59 C           3.1204    4.9839    6.1156 C.ar    1  UNL1        0.0000
     60 C           1.8363    2.7967    7.3253 C.ar    1  UNL1        0.0000
     61 C           6.8887   10.3168    5.9823 C.ar    1  UNL1        0.0000
     62 C          -1.7164   -2.7355    7.4181 C.2     1  UNL1        0.0000
     63 C           8.0414    1.3973    0.0311 C.2     1  UNL1        0.0000
     64 C           1.7258   13.7341    0.0837 C.2     1  UNL1        0.0000
     65 C           6.9685   -0.6232   13.2787 C.ar    1  UNL1        0.0000
     66 C          -6.6298    0.8238   13.3538 C.2     1  UNL1        0.0000
     67 C           3.8338    6.0643    5.4137 C.3     1  UNL1        0.0000
     68 C           1.1484    1.6479    7.9855 C.3     1  UNL1        0.0000
     69 C           6.2148    9.2731    5.2014 C.3     1  UNL1        0.0000
     70 C          -1.0702   -1.6396    8.1923 C.2     1  UNL1        0.0000
     71 C           8.0888    2.8865    0.0302 C.2     1  UNL1        0.0000
     72 C           1.7131   12.2661    0.0416 C.2     1  UNL1        0.0000
     73 C           5.6827   -1.3375   13.3139 C.3     1  UNL1        0.0000
     74 C          -5.3344    1.5647   13.3799 C.2     1  UNL1        0.0000
     75 C           1.7528    5.1070    6.5247 C.ar    1  UNL1        0.0000
     76 C           3.1906    2.6840    6.9438 C.ar    1  UNL1        0.0000
     77 C           6.1660   11.4879    6.3074 C.ar    1  UNL1        0.0000
     78 C          -0.9779   -3.8734    7.1130 C.3     1  UNL1        0.0000
     79 C           7.9618    0.7334    1.2500 C.3     1  UNL1        0.0000
     80 C          -2.9303    6.9746   12.2726 C.ar    1  UNL1        0.0000
     81 C          12.2896    7.2248    1.0955 C.2     1  UNL1        0.0000
     82 C          -7.1770    0.4594   12.1288 C.3     1  UNL1        0.0000
     83 C          -7.7500   10.1899    6.3973 C.2     1  UNL1        0.0000
     84 C          12.9392   -2.6155    7.0193 C.3     1  UNL1        0.0000
     85 C           3.8056    3.7683    6.3447 C.ar    1  UNL1        0.0000
     86 C           1.1366    3.9813    7.1206 C.ar    1  UNL1        0.0000
     87 C           7.6199   -0.2741   12.0508 C.ar    1  UNL1        0.0000
     88 C          -2.5296    7.9348    1.1513 C.3     2  UNL2        0.0000
     89 C           3.3217   -6.7842   12.2271 C.3     1  UNL1        0.0000
     90 C           7.8905   -0.6776    1.3173 C.2     1  UNL1        0.0000
     91 N           1.0402    6.2691    6.3947 N.pl3   1  UNL1        0.0000
     92 N           7.7675   -1.2806    2.5366 N.2     1  UNL1        0.0000
     93 N           7.1452   -0.6480   10.8228 N.pl3   1  UNL1        0.0000
     94 N          -6.9997    9.0711    6.1587 N.2     1  UNL1        0.0000
     95 N           8.2390    5.2535    7.5898 N.pl3   1  UNL1        0.0000
     96 N           6.2705   -4.3358    9.3726 N.3     1  UNL1        0.0000
     97 O           7.7706    5.6777    5.0170 O.3     1  UNL1        0.0000
     98 O          -2.8098    1.9487    8.3466 O.2     1  UNL1        0.0000
     99 O           4.2921   -2.6891    9.9884 O.2     1  UNL1        0.0000
    100 O           0.7053   10.3370    3.4189 O.3     1  UNL1        0.0000
    101 O           2.0740    9.4983    5.0133 O.3     1  UNL1        0.0000
    102 O           3.0293   -1.7738    8.3588 O.2     1  UNL1        0.0000
    103 O           9.1002    4.7268    3.4595 O.3     1  UNL1        0.0000
    104 O          -3.9789    3.0419    9.9460 O.2     1  UNL1        0.0000
    105 O           6.4223    5.0365    2.6784 O.3     1  UNL1        0.0000
    106 O          -1.3230    2.6148   10.6216 O.3     1  UNL1        0.0000
    107 O           7.8268    7.0585    2.5970 O.3     1  UNL1        0.0000
    108 O          -2.8022    0.6609   10.8207 O.3     1  UNL1        0.0000
    109 O           1.6495   -2.5045   10.6223 O.3     1  UNL1        0.0000
    110 O           3.3473   10.2137    2.7143 O.3     1  UNL1        0.0000
    111 O           2.8790   -0.3876   10.8618 O.3     1  UNL1        0.0000
    112 O           2.1985    8.0408    2.5698 O.3     1  UNL1        0.0000
    113 O           5.0763    5.8805    5.1160 O.3     1  UNL1        0.0000
    114 O          -0.1102    1.7231    8.1810 O.3     1  UNL1        0.0000
    115 O           6.8460    8.2153    4.8735 O.3     1  UNL1        0.0000
    116 O          -1.7996   -0.6690    8.5822 O.2     1  UNL1        0.0000
    117 O           3.3245   -3.9785   12.3094 O.2     1  UNL1        0.0000
    118 O           1.6287   11.6014    1.1320 O.2     1  UNL1        0.0000
    119 O           5.1097   -1.6482   12.2092 O.3     1  UNL1        0.0000
    120 O          -0.0544    9.1999    1.1181 O.3     1  UNL1        0.0000
    121 O           4.9824    9.4632    4.8554 O.3     1  UNL1        0.0000
    122 O           0.1792   -1.7283    8.4354 O.2     1  UNL1        0.0000
    123 O           3.2049    7.1392    5.1125 O.3     1  UNL1        0.0000
    124 O           1.8750    0.6497    8.3256 O.3     1  UNL1        0.0000
    125 O           9.9077    5.8423    1.0504 O.3     1  UNL1        0.0000
    126 O          -4.8395    1.9720   12.2811 O.2     1  UNL1        0.0000
    127 O           8.1476    3.4903    1.1461 O.2     1  UNL1        0.0000
    128 O          -2.9347    4.2158   12.3101 O.3     1  UNL1        0.0000
    129 O           4.8876    7.5269    2.8426 O.3     1  UNL1        0.0000
    130 O           0.1469    0.1618   10.4993 O.3     1  UNL1        0.0000
    131 O           7.2919    5.9592    0.0162 O.3     1  UNL1        0.0000
    132 O          -2.2345    1.6924   13.3668 O.3     1  UNL1        0.0000
    133 TI         -7.6397   -5.0979   24.9489 Ti      1  UNL1        0.0000
    134 TI          3.3618   -2.0147   15.2573 Ti      1  UNL1        0.0000
    135 TI         -3.0938   -8.3989   23.0316 Ti      1  UNL1        0.0000
    136 TI         -1.2314    1.2851   17.1706 Ti      1  UNL1        0.0000
    137 TI         -2.9206    2.1615   15.2123 Ti      1  UNL1        0.0000
    138 TI         -1.6048   -9.5524   24.9940 Ti      1  UNL1        0.0000
    139 TI         -6.1997   -6.3972   23.0436 Ti      1  UNL1        0.0000
    140 TI          1.6540   -0.9732   17.1146 Ti      1  UNL1        0.0000
    141 H          -1.0184   -5.7140   20.5307 H       1  UNL1        0.0000
    142 H          -4.6786  -11.3982   20.8554 H       1  UNL1        0.0000
    143 H           0.3977    4.0834   19.3826 H       1  UNL1        0.0000
    144 H          -7.6449   -1.0780   24.7702 H       3  UNL3        0.0000
    145 H           3.2071   -6.1446   15.5786 H       1  UNL1        0.0000
    146 H         -11.3881   -6.7266   24.6290 H       1  UNL1        0.0000
    147 H           7.0294   -0.5213   15.4179 H       1  UNL1        0.0000
    148 H          -1.3583  -13.7084   24.6987 H       4  UNL4        0.0000
    149 H          -6.8166    0.7623   15.5079 H       1  UNL1        0.0000
    150 H           0.1056   -3.7546   19.4325 H       1  UNL1        0.0000
    151 H          -4.6397   -3.4264   20.8490 H       1  UNL1        0.0000
    152 H           7.6490   -9.1810   20.6849 H       1  UNL1        0.0000
    153 H          -6.7981   -6.7283   26.7017 H       1  UNL1        0.0000
    154 H           2.3237   -0.5595   13.4347 H       1  UNL1        0.0000
    155 H          -4.2157   -6.7244   24.6004 H       1  UNL1        0.0000
    156 H          -0.3029   -0.4653   15.5731 H       1  UNL1        0.0000
    157 H          -1.0024   -9.7443   19.5426 H       1  UNL1        0.0000
    158 H          -3.3841    2.4371   20.6825 H       1  UNL1        0.0000
    159 H         -10.6916   -3.3068   22.5603 H       1  UNL1        0.0000
    160 H           6.2225   -3.9471   17.7243 H       1  UNL1        0.0000
    161 H          -8.2422   -4.9539   19.4351 H       1  UNL1        0.0000
    162 H          -5.8415    4.3445   17.7130 H       1  UNL1        0.0000
    163 H          -4.7001   -1.2322   19.9299 H       1  UNL1        0.0000
    164 H          -3.2945   -0.4640   19.2218 H       1  UNL1        0.0000
    165 H          -3.0935    5.3805   15.9927 H       1  UNL1        0.0000
    166 H           3.1874   -8.1958   16.7837 H       1  UNL1        0.0000
    167 H           2.8068   -7.6786   23.4117 H       1  UNL1        0.0000
    168 H           1.4640   -8.4900   24.1903 H       1  UNL1        0.0000
    169 H         -10.7359    1.6562   19.7185 H       1  UNL1        0.0000
    170 H           3.8944    0.9169   18.9207 H       1  UNL1        0.0000
    171 H           3.4257   -1.9870   21.9855 H       1  UNL1        0.0000
    172 H           2.9181   -1.7268   20.3247 H       1  UNL1        0.0000
    173 H           2.3893  -12.3075   22.9731 H       1  UNL1        0.0000
    174 H           1.0531  -11.3191   23.5404 H       1  UNL1        0.0000
    175 C           4.0547   -2.5059   18.0994 C.3     1  UNL1        0.0000
    176 C          -8.4927   -4.7417   22.1346 C.2     1  UNL1        0.0000
    177 C          -0.7264   -9.9748   22.1508 C.2     1  UNL1        0.0000
    178 C          -3.6912    2.7086   18.0511 C.3     1  UNL1        0.0000
    179 C           4.8967   -3.0722   19.1636 C.ar    1  UNL1        0.0000
    180 C          -9.3930   -4.1722   21.0946 C.2     1  UNL1        0.0000
    181 C           0.1200  -10.6300   21.1402 C.2     1  UNL1        0.0000
    182 C          -4.5326    3.3317   19.1114 C.ar    1  UNL1        0.0000
    183 C           4.6046   -2.8804   20.5537 C.ar    1  UNL1        0.0000
    184 C          -9.1154   -4.3768   19.7257 C.3     1  UNL1        0.0000
    185 C           1.2123  -11.4884   21.4961 C.3     1  UNL1        0.0000
    186 C          -5.6173    4.1654   18.7608 C.ar    1  UNL1        0.0000
    187 C          -4.2260    3.0848   20.4453 C.ar    1  UNL1        0.0000
    188 C          -0.1653  -10.3992   19.7744 C.3     1  UNL1        0.0000
    189 C           6.0355   -3.8218   18.7883 C.ar    1  UNL1        0.0000
    190 C         -10.5056   -3.4412   21.4965 C.3     1  UNL1        0.0000
    191 C          -1.6159   -2.4809   19.5277 C.ar    1  UNL1        0.0000
    192 C          -2.9000   -4.6680   20.7374 C.ar    1  UNL1        0.0000
    193 C           2.1524    2.8520   19.3944 C.ar    1  UNL1        0.0000
    194 C          -6.4527  -10.2002   20.8302 C.2     1  UNL1        0.0000
    195 C           3.3051   -6.0674   13.4432 C.2     1  UNL1        0.0000
    196 C          -3.0104    6.2694   13.4958 C.ar    1  UNL1        0.0000
    197 C           2.2323   -8.0879   26.6908 C.2     1  UNL1        0.0000
    198 C         -11.3661   -6.6410   26.7659 C.2     1  UNL1        0.0000
    199 C          -0.9024   -1.4004   18.8258 C.3     1  UNL1        0.0000
    200 C          -3.5879   -5.8168   21.3976 C.3     1  UNL1        0.0000
    201 C           1.4785    1.8084   18.6135 C.3     1  UNL1        0.0000
    202 C          -5.8064   -9.1043   21.6044 C.2     1  UNL1        0.0000
    203 C           3.3526   -4.5783   13.4423 C.2     1  UNL1        0.0000
    204 C          -3.0231    4.8014   13.4537 C.3     1  UNL1        0.0000
    205 C           0.9464   -8.8022   26.7260 C.2     1  UNL1        0.0000
    206 C         -10.0707   -5.9000   26.7920 C.2     1  UNL1        0.0000
    207 C          -2.9835   -2.3577   19.9368 C.ar    1  UNL1        0.0000
    208 C          -1.5456   -4.7808   20.3559 C.ar    1  UNL1        0.0000
    209 C           1.4297    4.0232   19.7195 C.ar    1  UNL1        0.0000
    210 C          -5.7141  -11.3381   20.5252 C.3     1  UNL1        0.0000
    211 C           3.2256   -6.7313   14.6622 C.3     1  UNL1        0.0000
    212 C          -7.6666   -0.4901   25.6847 C.2     3  UNL3        0.0000
    213 C           7.5533   -0.2399   14.5077 C.ar    1  UNL1        0.0000
    214 C         -11.9133   -7.0053   25.5409 C.3     1  UNL1        0.0000
    215 C         -12.4862    2.7252   19.8094 C.2     1  UNL1        0.0000
    216 C           8.2030  -10.0802   20.4314 C.3     1  UNL1        0.0000
    217 C          -0.9307   -3.6964   19.7569 C.ar    1  UNL1        0.0000
    218 C          -3.5996   -3.4834   20.5328 C.ar    1  UNL1        0.0000
    219 C           2.8836   -7.7388   25.4629 C.2     1  UNL1        0.0000
    220 C          -7.2659    0.4700   14.5634 C.3     1  UNL1        0.0000
    221 C          -1.4145  -14.2489   25.6392 C.3     3  UNL3        0.0000
    222 C           3.1542   -8.1423   14.7294 C.2     1  UNL1        0.0000
    223 N          -3.6960   -1.1956   19.8068 N.pl3   1  UNL1        0.0000
    224 N           3.0312   -8.7453   15.9488 N.2     1  UNL1        0.0000
    225 N           2.4089   -8.1127   24.2349 N.pl3   1  UNL1        0.0000
    226 N         -11.7360    1.6064   19.5708 N.2     1  UNL1        0.0000
    227 N           3.5028   -2.2113   21.0019 N.pl3   1  UNL1        0.0000
    228 N           1.5342  -11.8005   22.7848 N.3     1  UNL1        0.0000
    229 O           3.0343   -1.7870   18.4291 O.3     1  UNL1        0.0000
    230 O          -7.5461   -5.5161   21.7587 O.2     1  UNL1        0.0000
    231 O          -0.4442  -10.1538   23.4005 O.2     1  UNL1        0.0000
    232 O          -4.0309    2.8722   16.8310 O.3     1  UNL1        0.0000
    233 O          -2.6623    2.0336   18.4254 O.3     1  UNL1        0.0000
    234 O          -1.7069   -9.2386   21.7709 O.2     1  UNL1        0.0000
    235 O           4.3639   -2.7379   16.8716 O.3     1  UNL1        0.0000
    236 O          -8.7152   -4.4228   23.3581 O.2     1  UNL1        0.0000
    237 O           1.6861   -2.4282   16.0905 O.3     1  UNL1        0.0000
    238 O          -6.0592   -4.8499   24.0337 O.3     1  UNL1        0.0000
    239 O           3.0905   -0.4063   16.0091 O.3     1  UNL1        0.0000
    240 O          -7.5385   -6.8039   24.2328 O.3     1  UNL1        0.0000
    241 O          -3.0868   -9.9692   24.0344 O.3     1  UNL1        0.0000
    242 O          -1.3889    2.7490   16.1265 O.3     1  UNL1        0.0000
    243 O          -1.8573   -7.8523   24.2739 O.3     1  UNL1        0.0000
    244 O          -2.5378    0.5761   15.9819 O.3     1  UNL1        0.0000
    245 O           0.3400   -1.5842   18.5281 O.3     1  UNL1        0.0000
    246 O          -4.8464   -5.7416   21.5931 O.3     1  UNL1        0.0000
    247 O           2.1097    0.7506   18.2856 O.3     1  UNL1        0.0000
    248 O          -6.5359   -8.1337   21.9943 O.2     1  UNL1        0.0000
    249 O          -1.4118  -11.4432   25.7215 O.3     1  UNL1        0.0000
    250 O          -3.1076    4.1366   14.5441 O.3     1  UNL1        0.0000
    251 O           0.3734   -9.1129   25.6213 O.2     1  UNL1        0.0000
    252 O          -4.7907    1.7352   14.5302 O.2     1  UNL1        0.0000
    253 O           0.2461    1.9984   18.2675 O.3     1  UNL1        0.0000
    254 O          -4.5571   -9.1930   21.8475 O.2     1  UNL1        0.0000
    255 O          -1.5314   -0.3255   18.5246 O.3     1  UNL1        0.0000
    256 O          -2.8612   -6.8151   21.7377 O.3     1  UNL1        0.0000
    257 O           5.1715   -1.6224   14.4625 O.3     1  UNL1        0.0000
    258 O          -9.5757   -5.4928   25.6933 O.2     1  UNL1        0.0000
    259 O           3.4113   -3.9745   14.5582 O.2     1  UNL1        0.0000
    260 O          -7.6710   -3.2489   25.7222 O.3     1  UNL1        0.0000
    261 O           0.1514    0.0622   16.2548 O.3     1  UNL1        0.0000
    262 O          -4.5894   -7.3029   23.9114 O.3     1  UNL1        0.0000
    263 O           2.5556   -1.5055   13.4283 O.3     1  UNL1        0.0000
    264 O          -6.9707   -5.7723   26.7789 O.3     1  UNL1        0.0000
    265 TI         -9.1027   17.5069   11.5368 Ti      1  UNL1        0.0000
    266 TI          1.8988   20.5901    1.8452 Ti      1  UNL1        0.0000
    267 TI         -4.5568   14.2059    9.6194 Ti      1  UNL1        0.0000
    268 TI         -2.6944   23.8898    3.7585 Ti      1  UNL1        0.0000
    269 TI         -4.3837   24.7663    1.8002 Ti      1  UNL1        0.0000
    270 TI         -3.0678   13.0524   11.5819 Ti      1  UNL1        0.0000
    271 TI         -7.6627   16.2076    9.6315 Ti      1  UNL1        0.0000
    272 TI          0.1909   21.6316    3.7025 Ti      1  UNL1        0.0000
    273 H          -2.4814   16.8908    7.1186 H       1  UNL1        0.0000
    274 H          -6.1416   11.2066    7.4433 H       1  UNL1        0.0000
    275 H          -1.0653   26.6882    5.9705 H       1  UNL1        0.0000
    276 H          -9.1079   21.5267   11.3581 H       1  UNL1        0.0000
    277 H           1.7440   16.4601    2.1665 H       1  UNL1        0.0000
    278 H         -12.8512   15.8782   11.2168 H       1  UNL1        0.0000
    279 H           5.5664   22.0834    2.0058 H       5  UNL5        0.0000
    280 H          -2.8213    8.8964   11.2866 H       1  UNL1        0.0000
    281 H          -8.2796   23.3670    2.0958 H       7  UNL7        0.0000
    282 H          -1.3574   18.8502    6.0204 H       1  UNL1        0.0000
    283 H          -6.1027   19.1784    7.4369 H       1  UNL1        0.0000
    284 H           6.1860   13.4238    7.2727 H       1  UNL1        0.0000
    285 H          -8.2611   15.8764   13.2896 H       1  UNL1        0.0000
    286 H           0.8607   22.0453    0.0226 H       1  UNL1        0.0000
    287 H          -5.6788   15.8803   11.1883 H       1  UNL1        0.0000
    288 H          -1.7659   22.1394    2.1610 H       1  UNL1        0.0000
    289 H          -2.4655   12.8605    6.1305 H       1  UNL1        0.0000
    290 H          -4.8472   25.0419    7.2704 H       1  UNL1        0.0000
    291 H         -12.1546   19.2980    9.1482 H       1  UNL1        0.0000
    292 H           4.7595   18.6577    4.3122 H       1  UNL1        0.0000
    293 H          -9.7053   17.6509    6.0229 H       1  UNL1        0.0000
    294 H          -7.3045   26.9492    4.3009 H       1  UNL1        0.0000
    295 H          -6.1631   21.3726    6.5178 H       1  UNL1        0.0000
    296 H          -4.7575   22.1407    5.8096 H       1  UNL1        0.0000
    297 H          -4.5565   27.9853    2.5806 H       4  UNL4        0.0000
    298 H           1.7243   14.4090    3.3716 H       1  UNL1        0.0000
    299 H           1.3438   14.9262    9.9996 H       1  UNL1        0.0000
    300 H           0.0010   14.1148   10.7782 H       1  UNL1        0.0000
    301 H         -12.1989   24.2610    6.3064 H       6  UNL6        0.0000
    302 H           2.4314   23.5217    5.5086 H       1  UNL1        0.0000
    303 H           1.9627   20.6178    8.5733 H       1  UNL1        0.0000
    304 H           1.4550   20.8779    6.9126 H       1  UNL1        0.0000
    305 H           0.9263   10.2973    9.5610 H       1  UNL1        0.0000
    306 H          -0.4099   11.2857   10.1283 H       1  UNL1        0.0000
    307 C           2.5917   20.0988    4.6873 C.3     1  UNL1        0.0000
    308 C          -9.9557   17.8631    8.7224 C.2     1  UNL1        0.0000
    309 C          -2.1895   12.6300    8.7387 C.3     1  UNL1        0.0000
    310 C          -5.1542   25.3134    4.6390 C.2     1  UNL1        0.0000
    311 C           3.4337   19.5326    5.7515 C.ar    1  UNL1        0.0000
    312 C         -10.8560   18.4325    7.6825 C.2     1  UNL1        0.0000
    313 C          -1.3430   11.9748    7.7281 C.ar    1  UNL1        0.0000
    314 C          -5.9957   25.9365    5.6993 C.2     1  UNL1        0.0000
    315 C           3.1416   19.7244    7.1416 C.ar    1  UNL1        0.0000
    316 C         -10.5785   18.2279    6.3136 C.3     1  UNL1        0.0000
    317 C          -0.2507   11.1163    8.0840 C.ar    1  UNL1        0.0000
    318 C          -7.0803   26.7701    5.3487 C.3     1  UNL1        0.0000
    319 C          -5.6891   25.6896    7.0332 C.3     1  UNL1        0.0000
    320 C          -1.6283   12.2055    6.3623 C.ar    1  UNL1        0.0000
    321 C           4.5725   18.7829    5.3762 C.ar    1  UNL1        0.0000
    322 C         -11.9686   19.1636    8.0844 C.3     1  UNL1        0.0000
    323 C          -3.0789   20.1239    6.1156 C.ar    1  UNL1        0.0000
    324 C          -4.3630   17.9368    7.3253 C.ar    1  UNL1        0.0000
    325 C           0.6894   25.4568    5.9823 C.2     1  UNL1        0.0000
    326 C          -7.9157   12.4045    7.4181 C.2     1  UNL1        0.0000
    327 C           1.8421   16.5373    0.0311 C.2     1  UNL1        0.0000
    328 C          -4.4735   28.8742    0.0837 C.3     1  UNL1        0.0000
    329 C           0.7692   14.5169   13.2787 C.ar    1  UNL1        0.0000
    330 C         -12.8291   15.9638   13.3538 C.2     1  UNL1        0.0000
    331 C          -2.3654   21.2043    5.4137 C.3     1  UNL1        0.0000
    332 C          -5.0509   16.7880    7.9855 C.3     1  UNL1        0.0000
    333 C           0.0155   24.4132    5.2014 C.2     1  UNL1        0.0000
    334 C          -7.2695   13.5004    8.1923 C.2     1  UNL1        0.0000
    335 C           1.8896   18.0265    0.0302 C.2     1  UNL1        0.0000
    336 C          -4.4861   27.4062    0.0416 C.3     1  UNL1        0.0000
    337 C          -0.5166   13.8026   13.3139 C.3     1  UNL1        0.0000
    338 C         -11.5337   16.7047   13.3799 C.2     1  UNL1        0.0000
    339 C          -4.4465   20.2471    6.5247 C.ar    1  UNL1        0.0000
    340 C          -3.0087   17.8240    6.9438 C.ar    1  UNL1        0.0000
    341 C          -0.0333   26.6279    6.3074 C.3     1  UNL1        0.0000
    342 C          -7.1771   11.2667    7.1130 C.3     1  UNL1        0.0000
    343 C           1.7625   15.8734    1.2500 C.2     1  UNL1        0.0000
    344 C          -9.1296   22.1147   12.2726 C.3     1  UNL1        0.0000
    345 C           6.0903   22.3649    1.0955 C.2     5  UNL5        0.0000
    346 C         -13.3763   15.5995   12.1288 C.3     1  UNL1        0.0000
    347 C         -13.9493   25.3300    6.3973 C.3     6  UNL6        0.0000
    348 C           6.7399   12.5245    7.0193 C.ar    1  UNL1        0.0000
    349 C          -2.3937   18.9084    6.3447 C.ar    1  UNL1        0.0000
    350 C          -5.0627   19.1213    7.1206 C.ar    1  UNL1        0.0000
    351 C           1.4206   14.8660   12.0508 C.ar    1  UNL1        0.0000
    352 C          -8.7289   23.0748    1.1513 C.3     5  UNL5        0.0000
    353 C          -2.8775    8.3559   12.2271 C.ar    1  UNL1        0.0000
    354 C           1.6912   14.4624    1.3173 C.2     1  UNL1        0.0000
    355 N          -5.1591   21.4092    6.3947 N.pl3   1  UNL1        0.0000
    356 N           1.5682   13.8594    2.5366 N.pl3   1  UNL1        0.0000
    357 N           0.9459   14.4921   10.8228 N.pl3   1  UNL1        0.0000
    358 N         -13.1990   24.2112    6.1587 N.3     6  UNL6        0.0000
    359 N           2.0398   20.3935    7.5898 N.pl3   1  UNL1        0.0000
    360 N           0.0712   10.8042    9.3726 N.pl3   1  UNL1        0.0000
    361 O           1.5713   20.8178    5.0170 O.3     1  UNL1        0.0000
    362 O          -9.0091   17.0887    8.3466 O.2     1  UNL1        0.0000
    363 O          -1.9072   12.4510    9.9884 O.3     1  UNL1        0.0000
    364 O          -5.4940   25.4770    3.4189 O.2     1  UNL1        0.0000
    365 O          -4.1253   24.6384    5.0133 O.2     1  UNL1        0.0000
    366 O          -3.1699   13.3662    8.3588 O.3     1  UNL1        0.0000
    367 O           2.9009   19.8669    3.4595 O.3     1  UNL1        0.0000
    368 O         -10.1782   18.1820    9.9460 O.2     1  UNL1        0.0000
    369 O           0.2231   20.1766    2.6784 O.3     1  UNL1        0.0000
    370 O          -7.5223   17.7549   10.6216 O.3     1  UNL1        0.0000
    371 O           1.6275   22.1985    2.5970 O.3     1  UNL1        0.0000
    372 O          -9.0015   15.8009   10.8207 O.3     1  UNL1        0.0000
    373 O          -4.5498   12.6355   10.6223 O.3     1  UNL1        0.0000
    374 O          -2.8520   25.3537    2.7143 O.3     1  UNL1        0.0000
    375 O          -3.3203   14.7525   10.8618 O.3     1  UNL1        0.0000
    376 O          -4.0008   23.1808    2.5698 O.3     1  UNL1        0.0000
    377 O          -1.1230   21.0206    5.1160 O.3     1  UNL1        0.0000
    378 O          -6.3095   16.8631    8.1810 O.3     1  UNL1        0.0000
    379 O           0.6467   23.3553    4.8735 O.2     1  UNL1        0.0000
    380 O          -7.9989   14.4711    8.5822 O.2     1  UNL1        0.0000
    381 O          -2.8748   11.1615   12.3094 O.3     1  UNL1        0.0000
    382 O          -4.5706   26.7414    1.1320 O.3     1  UNL1        0.0000
    383 O          -1.0896   13.4919   12.2092 O.3     1  UNL1        0.0000
    384 O          -6.2537   24.3399    1.1181 O.3     1  UNL1        0.0000
    385 O          -1.2169   24.6032    4.8554 O.2     1  UNL1        0.0000
    386 O          -6.0201   13.4118    8.4354 O.2     1  UNL1        0.0000
    387 O          -2.9944   22.2792    5.1125 O.3     1  UNL1        0.0000
    388 O          -4.3243   15.7897    8.3256 O.3     1  UNL1        0.0000
    389 O           3.7085   20.9824    1.0504 O.3     1  UNL1        0.0000
    390 O         -11.0387   17.1120   12.2811 O.2     1  UNL1        0.0000
    391 O           1.9483   18.6303    1.1461 O.2     1  UNL1        0.0000
    392 O          -9.1340   19.3558   12.3101 O.2     1  UNL1        0.0000
    393 O          -1.3117   22.6670    2.8426 O.3     1  UNL1        0.0000
    394 O          -6.0524   15.3019   10.4993 O.3     1  UNL1        0.0000
    395 O           1.0926   21.0993    0.0162 O.3     1  UNL1        0.0000
    396 O          -8.4338   16.8325   13.3668 O.3     1  UNL1        0.0000
    397 TI        -13.8390   10.0422   24.9489 Ti      1  UNL1        0.0000
    398 TI         -2.8374   13.1253   15.2573 Ti      1  UNL1        0.0000
    399 TI         -9.2931    6.7412   23.0316 Ti      1  UNL1        0.0000
    400 TI         -7.4307   16.4251   17.1706 Ti      1  UNL1        0.0000
    401 TI         -9.1199   17.3015   15.2123 Ti      1  UNL1        0.0000
    402 TI         -7.8040    5.5877   24.9940 Ti      1  UNL1        0.0000
    403 TI        -12.3990    8.7429   23.0436 Ti      1  UNL1        0.0000
    404 TI         -4.5453   14.1668   17.1146 Ti      1  UNL1        0.0000
    405 H          -7.2177    9.4261   20.5307 H       1  UNL1        0.0000
    406 H         -10.8779    3.7419   20.8554 H       1  UNL1        0.0000
    407 H          -5.8016   19.2234   19.3826 H       1  UNL1        0.0000
    408 H         -13.8442   14.0620   24.7702 H       8  UNL8        0.0000
    409 H          -2.9922    8.9954   15.5786 H       1  UNL1        0.0000
    410 H         -17.5874    8.4134   24.6290 H       1  UNL1        0.0000
    411 H           0.8301   14.6187   15.4179 H       1  UNL1        0.0000
    412 H          -7.5576    1.4317   24.6987 H       3  UNL3        0.0000
    413 H         -13.0159   15.9023   15.5079 H       1  UNL1        0.0000
    414 H          -6.0937   11.3855   19.4325 H       1  UNL1        0.0000
    415 H         -10.8390   11.7137   20.8490 H       1  UNL1        0.0000
    416 H           1.4497    5.9591   20.6849 H       1  UNL1        0.0000
    417 H         -12.9974    8.4117   26.7017 H       1  UNL1        0.0000
    418 H          -3.8756   14.5806   13.4347 H       1  UNL1        0.0000
    419 H         -10.4150    8.4156   24.6004 H       1  UNL1        0.0000
    420 H          -6.5022   14.6747   15.5731 H       1  UNL1        0.0000
    421 H          -7.2017    5.3957   19.5426 H       1  UNL1        0.0000
    422 H          -9.5834   17.5772   20.6825 H       1  UNL1        0.0000
    423 H         -16.8909   11.8333   22.5603 H       1  UNL1        0.0000
    424 H           0.0232   11.1929   17.7243 H       1  UNL1        0.0000
    425 H         -14.4415   10.1862   19.4351 H       1  UNL1        0.0000
    426 H         -12.0408   19.4845   17.7130 H       1  UNL1        0.0000
    427 H         -10.8993   13.9079   19.9299 H       1  UNL1        0.0000
    428 H          -9.4938   14.6760   19.2218 H       1  UNL1        0.0000
    429 H          -9.2928   20.5206   15.9927 H       6  UNL6        0.0000
    430 H          -3.0119    6.9443   16.7837 H       1  UNL1        0.0000
    431 H          -3.3925    7.4615   23.4117 H       1  UNL1        0.0000
    432 H          -4.7352    6.6501   24.1903 H       1  UNL1        0.0000
    433 H         -16.9352   16.7963   19.7185 H       9  UNL9        0.0000
    434 H          -2.3048   16.0569   18.9207 H       1  UNL1        0.0000
    435 H          -2.7736   13.1531   21.9855 H       1  UNL1        0.0000
    436 H          -3.2812   13.4132   20.3247 H       1  UNL1        0.0000
    437 H          -3.8100    2.8326   22.9731 H       1  UNL1        0.0000
    438 H          -5.1461    3.8209   23.5404 H       1  UNL1        0.0000
    439 C          -2.1446   12.6341   18.0994 C.3     1  UNL1        0.0000
    440 C         -14.6919   10.3984   22.1346 C.2     1  UNL1        0.0000
    441 C          -6.9257    5.1652   22.1508 C.3     1  UNL1        0.0000
    442 C          -9.8905   17.8487   18.0511 C.2     1  UNL1        0.0000
    443 C          -1.3026   12.0679   19.1636 C.ar    1  UNL1        0.0000
    444 C         -15.5923   10.9678   21.0946 C.2     1  UNL1        0.0000
    445 C          -6.0792    4.5100   21.1402 C.ar    1  UNL1        0.0000
    446 C         -10.7319   18.4717   19.1114 C.2     1  UNL1        0.0000
    447 C          -1.5947   12.2597   20.5537 C.ar    1  UNL1        0.0000
    448 C         -15.3147   10.7632   19.7257 C.3     1  UNL1        0.0000
    449 C          -4.9869    3.6516   21.4961 C.ar    1  UNL1        0.0000
    450 C         -11.8166   19.3054   18.7608 C.3     1  UNL1        0.0000
    451 C         -10.4253   18.2249   20.4453 C.3     1  UNL1        0.0000
    452 C          -6.3646    4.7408   19.7744 C.ar    1  UNL1        0.0000
    453 C          -0.1638   11.3182   18.7883 C.ar    1  UNL1        0.0000
    454 C         -16.7049   11.6989   21.4965 C.3     1  UNL1        0.0000
    455 C          -7.8151   12.6592   19.5277 C.ar    1  UNL1        0.0000
    456 C          -9.0993   10.4720   20.7374 C.ar    1  UNL1        0.0000
    457 C          -4.0468   17.9921   19.3944 C.2     1  UNL1        0.0000
    458 C         -12.6520    4.9398   20.8302 C.2     1  UNL1        0.0000
    459 C          -2.8942    9.0726   13.4432 C.ar    1  UNL1        0.0000
    460 C          -9.2097   21.4095   13.4958 C.2     1  UNL1        0.0000
    461 C          -3.9670    7.0521   26.6908 C.2     1  UNL1        0.0000
    462 C         -17.5654    8.4991   26.7659 C.2     1  UNL1        0.0000
    463 C          -7.1017   13.7396   18.8258 C.3     1  UNL1        0.0000
    464 C          -9.7871    9.3232   21.3976 C.3     1  UNL1        0.0000
    465 C          -4.7208   16.9484   18.6135 C.2     1  UNL1        0.0000
    466 C         -12.0057    6.0357   21.6044 C.2     1  UNL1        0.0000
    467 C          -2.8467   10.5618   13.4423 C.3     1  UNL1        0.0000
    468 C          -9.2224   19.9415   13.4537 C.2     1  UNL1        0.0000
    469 C          -5.2529    6.3378   26.7260 C.2     1  UNL1        0.0000
    470 C         -16.2700    9.2400   26.7920 C.2     1  UNL1        0.0000
    471 C          -9.1828   12.7824   19.9368 C.ar    1  UNL1        0.0000
    472 C          -7.7449   10.3593   20.3559 C.ar    1  UNL1        0.0000
    473 C          -4.7696   19.1632   19.7195 C.3     1  UNL1        0.0000
    474 C         -11.9134    3.8019   20.5252 C.3     1  UNL1        0.0000
    475 C          -2.9737    8.4087   14.6622 C.ar    1  UNL1        0.0000
    476 C         -13.8659   14.6500   25.6847 C.3     7  UNL7        0.0000
    477 C           1.3540   14.9001   14.5077 C.ar    1  UNL1        0.0000
    478 C         -18.1126    8.1348   25.5409 C.3     1  UNL1        0.0000
    479 C         -18.6855   17.8652   19.8094 C.3     9  UNL9        0.0000
    480 C           2.0037    5.0598   20.4314 C.ar    1  UNL1        0.0000
    481 C          -7.1300   11.4436   19.7569 C.ar    1  UNL1        0.0000
    482 C          -9.7989   11.6566   20.5328 C.ar    1  UNL1        0.0000
    483 C          -3.3156    7.4012   25.4629 C.2     1  UNL1        0.0000
    484 C         -13.4651   15.6101   14.5634 C.3     1  UNL1        0.0000
    485 C          -7.6138    0.8912   25.6392 C.2     3  UNL3        0.0000
    486 C          -3.0451    6.9977   14.7294 C.ar    1  UNL1        0.0000
    487 N          -9.8953   13.9445   19.8068 N.pl3   1  UNL1        0.0000
    488 N          -3.1681    6.3947   15.9488 N.pl3   1  UNL1        0.0000
    489 N          -3.7903    7.0274   24.2349 N.pl3   1  UNL1        0.0000
    490 N         -17.9353   16.7464   19.5708 N.3     9  UNL9        0.0000
    491 N          -2.6965   12.9288   21.0019 N.pl3   1  UNL1        0.0000
    492 N          -4.6651    3.3395   22.7848 N.pl3   1  UNL1        0.0000
    493 O          -3.1650   13.3531   18.4291 O.3     1  UNL1        0.0000
    494 O         -13.7454    9.6240   21.7587 O.2     1  UNL1        0.0000
    495 O          -6.6435    4.9863   23.4005 O.3     1  UNL1        0.0000
    496 O         -10.2302   18.0123   16.8310 O.2     1  UNL1        0.0000
    497 O          -8.8615   17.1736   18.4254 O.2     1  UNL1        0.0000
    498 O          -7.9062    5.9015   21.7709 O.3     1  UNL1        0.0000
    499 O          -1.8354   12.4022   16.8716 O.3     1  UNL1        0.0000
    500 O         -14.9145   10.7172   23.3581 O.2     1  UNL1        0.0000
    501 O          -4.5132   12.7119   16.0905 O.3     1  UNL1        0.0000
    502 O         -12.2585   10.2901   24.0337 O.3     1  UNL1        0.0000
    503 O          -3.1087   14.7338   16.0091 O.3     1  UNL1        0.0000
    504 O         -13.7377    8.3362   24.2328 O.3     1  UNL1        0.0000
    505 O          -9.2861    5.1708   24.0344 O.3     1  UNL1        0.0000
    506 O          -7.5882   17.8890   16.1265 O.3     1  UNL1        0.0000
    507 O          -8.0566    7.2878   24.2739 O.3     1  UNL1        0.0000
    508 O          -8.7371   15.7161   15.9819 O.3     1  UNL1        0.0000
    509 O          -5.8593   13.5559   18.5281 O.3     1  UNL1        0.0000
    510 O         -11.0457    9.3984   21.5931 O.3     1  UNL1        0.0000
    511 O          -4.0896   15.8906   18.2856 O.2     1  UNL1        0.0000
    512 O         -12.7352    7.0064   21.9943 O.2     1  UNL1        0.0000
    513 O          -7.6111    3.6968   25.7215 O.3     1  UNL1        0.0000
    514 O          -9.3069   19.2767   14.5441 O.2     1  UNL1        0.0000
    515 O          -5.8259    6.0272   25.6213 O.2     1  UNL1        0.0000
    516 O         -10.9900   16.8752   14.5302 O.2     1  UNL1        0.0000
    517 O          -5.9532   17.1385   18.2675 O.2     1  UNL1        0.0000
    518 O         -10.7564    5.9471   21.8475 O.2     1  UNL1        0.0000
    519 O          -7.7307   14.8145   18.5246 O.3     1  UNL1        0.0000
    520 O          -9.0605    8.3250   21.7377 O.3     1  UNL1        0.0000
    521 O          -1.0278   13.5176   14.4625 O.3     1  UNL1        0.0000
    522 O         -15.7750    9.6473   25.6933 O.2     1  UNL1        0.0000
    523 O          -2.7879   11.1656   14.5582 O.3     1  UNL1        0.0000
    524 O         -13.8703   11.8911   25.7222 O.3     1  UNL1        0.0000
    525 O          -6.0479   15.2023   16.2548 O.3     1  UNL1        0.0000
    526 O         -10.7886    7.8371   23.9114 O.3     1  UNL1        0.0000
    527 O          -3.6437   13.6346   13.4283 O.3     1  UNL1        0.0000
    528 O         -13.1700    9.3677   26.7789 O.3     1  UNL1        0.0000
    529 TI         13.1008    2.3669   11.5368 Ti      1  UNL1        0.0000
    530 TI         24.1024    5.4500    1.8452 Ti      1  UNL1        0.0000
    531 TI         17.6468   -0.9341    9.6194 Ti      1  UNL1        0.0000
    532 TI         19.5091    8.7498    3.7585 Ti      1  UNL1        0.0000
    533 TI         17.8199    9.6262    1.8002 Ti      1  UNL1        0.0000
    534 TI         19.1358   -2.0876   11.5819 Ti      1  UNL1        0.0000
    535 TI         14.5408    1.0675    9.6315 Ti      1  UNL1        0.0000
    536 TI         22.3945    6.4915    3.7025 Ti      1  UNL1        0.0000
    537 H          19.7221    1.7508    7.1186 H       1  UNL1        0.0000
    538 H          16.0619   -3.9334    7.4433 H       1  UNL1        0.0000
    539 H          21.1382   11.5481    5.9705 H       1  UNL1        0.0000
    540 H          13.0956    6.3867   11.3581 H       1  UNL1        0.0000
    541 H          23.9476    1.3201    2.1665 H       1  UNL1        0.0000
    542 H           9.3524    0.7381   11.2168 H       1  UNL1        0.0000
    543 H          27.7699    6.9434    2.0058 H      10  UNL10       0.0000
    544 H          19.3822   -6.2437   11.2866 H       1  UNL1        0.0000
    545 H          13.9239    8.2270    2.0958 H       1  UNL1        0.0000
    546 H          20.8461    3.7101    6.0204 H       1  UNL1        0.0000
    547 H          16.1008    4.0384    7.4369 H       1  UNL1        0.0000
    548 H          28.3895   -1.7163    7.2727 H      11  UNL11       0.0000
    549 H          13.9425    0.7364   13.2896 H       1  UNL1        0.0000
    550 H          23.0642    6.9052    0.0226 H       1  UNL1        0.0000
    551 H          16.5248    0.7403   11.1883 H       1  UNL1        0.0000
    552 H          20.4376    6.9994    2.1610 H       1  UNL1        0.0000
    553 H          19.7381   -2.2796    6.1305 H       1  UNL1        0.0000
    554 H          17.3564    9.9019    7.2704 H       1  UNL1        0.0000
    555 H          10.0489    4.1579    9.1482 H       1  UNL1        0.0000
    556 H          26.9630    3.5176    4.3122 H       1  UNL1        0.0000
    557 H          12.4983    2.5108    6.0229 H       1  UNL1        0.0000
    558 H          14.8990   11.8092    4.3009 H       1  UNL1        0.0000
    559 H          16.0405    6.2325    6.5178 H       1  UNL1        0.0000
    560 H          17.4460    7.0007    5.8096 H       1  UNL1        0.0000
    561 H          17.6470   12.8452    2.5806 H       1  UNL1        0.0000
    562 H          23.9279   -0.7310    3.3716 H       1  UNL1        0.0000
    563 H          23.5473   -0.2139    9.9996 H       1  UNL1        0.0000
    564 H          22.2046   -1.0252   10.7782 H       1  UNL1        0.0000
    565 H          10.0046    9.1210    6.3064 H       1  UNL1        0.0000
    566 H          24.6350    8.3816    5.5086 H       8  UNL8        0.0000
    567 H          24.1662    5.4777    8.5733 H       1  UNL1        0.0000
    568 H          23.6586    5.7379    6.9126 H       1  UNL1        0.0000
    569 H          23.1298   -4.8428    9.5610 H       1  UNL1        0.0000
    570 H          21.7937   -3.8544   10.1283 H       1  UNL1        0.0000
    571 C          24.7952    4.9588    4.6873 C.2     1  UNL1        0.0000
    572 C          12.2479    2.7231    8.7224 C.3     1  UNL1        0.0000
    573 C          20.0141   -2.5101    8.7387 C.2     1  UNL1        0.0000
    574 C          17.0493   10.1733    4.6390 C.3     1  UNL1        0.0000
    575 C          25.6372    4.3926    5.7515 C.2     1  UNL1        0.0000
    576 C          11.3476    3.2925    7.6825 C.ar    1  UNL1        0.0000
    577 C          20.8606   -3.1653    7.7281 C.2     1  UNL1        0.0000
    578 C          16.2079   10.7964    5.6993 C.ar    1  UNL1        0.0000
    579 C          25.3451    4.5844    7.1416 C.3     1  UNL1        0.0000
    580 C          11.6251    3.0879    6.3136 C.ar    1  UNL1        0.0000
    581 C          21.9529   -4.0237    8.0840 C.3     1  UNL1        0.0000
    582 C          15.1232   11.6301    5.3487 C.ar    1  UNL1        0.0000
    583 C          16.5145   10.5495    7.0332 C.ar    1  UNL1        0.0000
    584 C          20.5752   -2.9345    6.3623 C.3     1  UNL1        0.0000
    585 C          26.7760    3.6429    5.3762 C.3     1  UNL1        0.0000
    586 C          10.2349    4.0235    8.0844 C.ar    1  UNL1        0.0000
    587 C          19.1247    4.9839    6.1156 C.ar    1  UNL1        0.0000
    588 C          17.8406    2.7967    7.3253 C.ar    1  UNL1        0.0000
    589 C          22.8930   10.3168    5.9823 C.2     1  UNL1        0.0000
    590 C          14.2878   -2.7355    7.4181 C.2     1  UNL1        0.0000
    591 C          24.0456    1.3973    0.0311 C.2     1  UNL1        0.0000
    592 C          17.7301   13.7341    0.0837 C.2     1  UNL1        0.0000
    593 C          22.9728   -0.6232   13.2787 C.2     1  UNL1        0.0000
    594 C           9.3744    0.8238   13.3538 C.ar    1  UNL1        0.0000
    595 C          19.8381    6.0643    5.4137 C.3     1  UNL1        0.0000
    596 C          17.1527    1.6479    7.9855 C.3     1  UNL1        0.0000
    597 C          22.2190    9.2731    5.2014 C.2     1  UNL1        0.0000
    598 C          14.9341   -1.6396    8.1923 C.2     1  UNL1        0.0000
    599 C          24.0931    2.8865    0.0302 C.2     1  UNL1        0.0000
    600 C          17.7174   12.2661    0.0416 C.2     1  UNL1        0.0000
    601 C          21.6869   -1.3375   13.3139 C.2     1  UNL1        0.0000
    602 C          10.6698    1.5647   13.3799 C.3     1  UNL1        0.0000
    603 C          17.7570    5.1070    6.5247 C.ar    1  UNL1        0.0000
    604 C          19.1949    2.6840    6.9438 C.ar    1  UNL1        0.0000
    605 C          22.1702   11.4879    6.3074 C.2     1  UNL1        0.0000
    606 C          15.0264   -3.8734    7.1130 C.3     1  UNL1        0.0000
    607 C          23.9661    0.7334    1.2500 C.3     1  UNL1        0.0000
    608 C          13.0739    6.9746   12.2726 C.ar    1  UNL1        0.0000
    609 C          28.2938    7.2248    1.0955 C.3     9  UNL9        0.0000
    610 C           8.8272    0.4594   12.1288 C.ar    1  UNL1        0.0000
    611 C           8.2543   10.1899    6.3973 C.ar    1  UNL1        0.0000
    612 C          28.9435   -2.6155    7.0193 C.3    10  UNL10       0.0000
    613 C          19.8098    3.7683    6.3447 C.ar    1  UNL1        0.0000
    614 C          17.1409    3.9813    7.1206 C.ar    1  UNL1        0.0000
    615 C          23.6242   -0.2741   12.0508 C.3     1  UNL1        0.0000
    616 C          13.4747    7.9348    1.1513 C.2     1  UNL1        0.0000
    617 C          19.3260   -6.7842   12.2271 C.3     1  UNL1        0.0000
    618 C          23.8947   -0.6776    1.3173 C.2     1  UNL1        0.0000
    619 N          17.0445    6.2691    6.3947 N.pl3   1  UNL1        0.0000
    620 N          23.7717   -1.2806    2.5366 N.2     1  UNL1        0.0000
    621 N          23.1495   -0.6480   10.8228 N.3     1  UNL1        0.0000
    622 N           9.0045    9.0711    6.1587 N.pl3   1  UNL1        0.0000
    623 N          24.2433    5.2535    7.5898 N.3     1  UNL1        0.0000
    624 N          22.2748   -4.3358    9.3726 N.3     1  UNL1        0.0000
    625 O          23.7748    5.6777    5.0170 O.2     1  UNL1        0.0000
    626 O          13.1944    1.9487    8.3466 O.3     1  UNL1        0.0000
    627 O          20.2964   -2.6891    9.9884 O.2     1  UNL1        0.0000
    628 O          16.7096   10.3370    3.4189 O.3     1  UNL1        0.0000
    629 O          18.0783    9.4983    5.0133 O.3     1  UNL1        0.0000
    630 O          19.0336   -1.7738    8.3588 O.2     1  UNL1        0.0000
    631 O          25.1044    4.7268    3.4595 O.2     1  UNL1        0.0000
    632 O          12.0253    3.0419    9.9460 O.3     1  UNL1        0.0000
    633 O          22.4266    5.0365    2.6784 O.3     1  UNL1        0.0000
    634 O          14.6813    2.6148   10.6216 O.3     1  UNL1        0.0000
    635 O          23.8311    7.0585    2.5970 O.3     1  UNL1        0.0000
    636 O          13.2021    0.6609   10.8207 O.3     1  UNL1        0.0000
    637 O          17.6538   -2.5045   10.6223 O.3     1  UNL1        0.0000
    638 O          19.3516   10.2137    2.7143 O.3     1  UNL1        0.0000
    639 O          18.8832   -0.3876   10.8618 O.3     1  UNL1        0.0000
    640 O          18.2027    8.0408    2.5698 O.3     1  UNL1        0.0000
    641 O          21.0805    5.8805    5.1160 O.3     1  UNL1        0.0000
    642 O          15.8941    1.7231    8.1810 O.3     1  UNL1        0.0000
    643 O          22.8502    8.2153    4.8735 O.2     1  UNL1        0.0000
    644 O          14.2047   -0.6690    8.5822 O.2     1  UNL1        0.0000
    645 O          19.3287   -3.9785   12.3094 O.2     1  UNL1        0.0000
    646 O          17.6329   11.6014    1.1320 O.2     1  UNL1        0.0000
    647 O          21.1139   -1.6482   12.2092 O.2     1  UNL1        0.0000
    648 O          15.9498    9.1999    1.1181 O.3     1  UNL1        0.0000
    649 O          20.9866    9.4632    4.8554 O.2     1  UNL1        0.0000
    650 O          16.1834   -1.7283    8.4354 O.2     1  UNL1        0.0000
    651 O          19.2091    7.1392    5.1125 O.3     1  UNL1        0.0000
    652 O          17.8793    0.6497    8.3256 O.3     1  UNL1        0.0000
    653 O          25.9120    5.8423    1.0504 O.3     1  UNL1        0.0000
    654 O          11.1648    1.9720   12.2811 O.3     1  UNL1        0.0000
    655 O          24.1519    3.4903    1.1461 O.2     1  UNL1        0.0000
    656 O          13.0695    4.2158   12.3101 O.3     1  UNL1        0.0000
    657 O          20.8919    7.5269    2.8426 O.3     1  UNL1        0.0000
    658 O          16.1512    0.1618   10.4993 O.3     1  UNL1        0.0000
    659 O          23.2961    5.9592    0.0162 O.3     1  UNL1        0.0000
    660 O          13.7698    1.6924   13.3668 O.3     1  UNL1        0.0000
    661 TI          8.3646   -5.0979   24.9489 Ti      1  UNL1        0.0000
    662 TI         19.3661   -2.0147   15.2573 Ti      1  UNL1        0.0000
    663 TI         12.9105   -8.3989   23.0316 Ti      1  UNL1        0.0000
    664 TI         14.7728    1.2851   17.1706 Ti      1  UNL1        0.0000
    665 TI         13.0836    2.1615   15.2123 Ti      1  UNL1        0.0000
    666 TI         14.3995   -9.5524   24.9940 Ti      1  UNL1        0.0000
    667 TI          9.8046   -6.3972   23.0436 Ti      1  UNL1        0.0000
    668 TI         17.6582   -0.9732   17.1146 Ti      1  UNL1        0.0000
    669 H          14.9859   -5.7140   20.5307 H       1  UNL1        0.0000
    670 H          11.3257  -11.3982   20.8554 H       1  UNL1        0.0000
    671 H          16.4019    4.0834   19.3826 H       1  UNL1        0.0000
    672 H           8.3593   -1.0780   24.7702 H      12  UNL12       0.0000
    673 H          19.2113   -6.1446   15.5786 H       1  UNL1        0.0000
    674 H           4.6161   -6.7266   24.6290 H       1  UNL1        0.0000
    675 H          23.0337   -0.5213   15.4179 H       1  UNL1        0.0000
    676 H          14.6460  -13.7084   24.6987 H      14  UNL14       0.0000
    677 H           9.1876    0.7623   15.5079 H       1  UNL1        0.0000
    678 H          16.1099   -3.7546   19.4325 H       1  UNL1        0.0000
    679 H          11.3645   -3.4264   20.8490 H       1  UNL1        0.0000
    680 H          23.6533   -9.1810   20.6849 H      13  UNL13       0.0000
    681 H           9.2062   -6.7283   26.7017 H       1  UNL1        0.0000
    682 H          18.3280   -0.5595   13.4347 H       1  UNL1        0.0000
    683 H          11.7885   -6.7244   24.6004 H       1  UNL1        0.0000
    684 H          15.7014   -0.4653   15.5731 H       1  UNL1        0.0000
    685 H          15.0018   -9.7443   19.5426 H       1  UNL1        0.0000
    686 H          12.6201    2.4371   20.6825 H       1  UNL1        0.0000
    687 H           5.3127   -3.3068   22.5603 H       1  UNL1        0.0000
    688 H          22.2268   -3.9471   17.7243 H       1  UNL1        0.0000
    689 H           7.7620   -4.9539   19.4351 H       1  UNL1        0.0000
    690 H          10.1628    4.3445   17.7130 H       1  UNL1        0.0000
    691 H          11.3042   -1.2322   19.9299 H       1  UNL1        0.0000
    692 H          12.7098   -0.4640   19.2218 H       1  UNL1        0.0000
    693 H          12.9108    5.3805   15.9927 H       1  UNL1        0.0000
    694 H          19.1916   -8.1958   16.7837 H       1  UNL1        0.0000
    695 H          18.8111   -7.6786   23.4117 H       1  UNL1        0.0000
    696 H          17.4683   -8.4900   24.1903 H       1  UNL1        0.0000
    697 H           5.2684    1.6562   19.7185 H       1  UNL1        0.0000
    698 H          19.8987    0.9169   18.9207 H      11  UNL11       0.0000
    699 H          19.4300   -1.9870   21.9855 H       1  UNL1        0.0000
    700 H          18.9223   -1.7268   20.3247 H       1  UNL1        0.0000
    701 H          18.3936  -12.3075   22.9731 H       1  UNL1        0.0000
    702 H          17.0574  -11.3191   23.5404 H       1  UNL1        0.0000
    703 C          20.0590   -2.5059   18.0994 C.2     1  UNL1        0.0000
    704 C           7.5116   -4.7417   22.1346 C.3     1  UNL1        0.0000
    705 C          15.2778   -9.9748   22.1508 C.2     1  UNL1        0.0000
    706 C          12.3131    2.7086   18.0511 C.3     1  UNL1        0.0000
    707 C          20.9009   -3.0722   19.1636 C.2     1  UNL1        0.0000
    708 C           6.6113   -4.1722   21.0946 C.ar    1  UNL1        0.0000
    709 C          16.1243  -10.6300   21.1402 C.2     1  UNL1        0.0000
    710 C          11.4716    3.3317   19.1114 C.ar    1  UNL1        0.0000
    711 C          20.6088   -2.8804   20.5537 C.3     1  UNL1        0.0000
    712 C           6.8888   -4.3768   19.7257 C.ar    1  UNL1        0.0000
    713 C          17.2166  -11.4884   21.4961 C.3     1  UNL1        0.0000
    714 C          10.3869    4.1654   18.7608 C.ar    1  UNL1        0.0000
    715 C          11.7782    3.0848   20.4453 C.ar    1  UNL1        0.0000
    716 C          15.8390  -10.3992   19.7744 C.3     1  UNL1        0.0000
    717 C          22.0398   -3.8218   18.7883 C.3     1  UNL1        0.0000
    718 C           5.4987   -3.4412   21.4965 C.ar    1  UNL1        0.0000
    719 C          14.3884   -2.4809   19.5277 C.ar    1  UNL1        0.0000
    720 C          13.1043   -4.6680   20.7374 C.ar    1  UNL1        0.0000
    721 C          18.1567    2.8520   19.3944 C.2     1  UNL1        0.0000
    722 C           9.5516  -10.2002   20.8302 C.2     1  UNL1        0.0000
    723 C          19.3094   -6.0674   13.4432 C.2     1  UNL1        0.0000
    724 C          12.9938    6.2694   13.4958 C.ar    1  UNL1        0.0000
    725 C          18.2365   -8.0879   26.6908 C.2     1  UNL1        0.0000
    726 C           4.6382   -6.6410   26.7659 C.2     1  UNL1        0.0000
    727 C          15.1018   -1.4004   18.8258 C.3     1  UNL1        0.0000
    728 C          12.4164   -5.8168   21.3976 C.3     1  UNL1        0.0000
    729 C          17.4828    1.8084   18.6135 C.2     1  UNL1        0.0000
    730 C          10.1978   -9.1043   21.6044 C.2     1  UNL1        0.0000
    731 C          19.3568   -4.5783   13.4423 C.2     1  UNL1        0.0000
    732 C          12.9811    4.8014   13.4537 C.3     1  UNL1        0.0000
    733 C          16.9507   -8.8022   26.7260 C.2     1  UNL1        0.0000
    734 C           5.9336   -5.9000   26.7920 C.2     1  UNL1        0.0000
    735 C          13.0208   -2.3577   19.9368 C.ar    1  UNL1        0.0000
    736 C          14.4586   -4.7808   20.3559 C.ar    1  UNL1        0.0000
    737 C          17.4340    4.0232   19.7195 C.2     1  UNL1        0.0000
    738 C          10.2901  -11.3381   20.5252 C.3     1  UNL1        0.0000
    739 C          19.2298   -6.7313   14.6622 C.3     1  UNL1        0.0000
    740 C           8.3377   -0.4901   25.6847 C.2    12  UNL12       0.0000
    741 C          23.5576   -0.2399   14.5077 C.3     1  UNL1        0.0000
    742 C           4.0910   -7.0053   25.5409 C.2     1  UNL1        0.0000
    743 C           3.5180    2.7252   19.8094 C.ar    1  UNL1        0.0000
    744 C          24.2072  -10.0802   20.4314 C.3    12  UNL12       0.0000
    745 C          15.0736   -3.6964   19.7569 C.ar    1  UNL1        0.0000
    746 C          12.4046   -3.4834   20.5328 C.ar    1  UNL1        0.0000
    747 C          18.8879   -7.7388   25.4629 C.3     1  UNL1        0.0000
    748 C           8.7384    0.4700   14.5634 C.ar    1  UNL1        0.0000
    749 C          14.5897  -14.2489   25.6392 C.3    13  UNL13       0.0000
    750 C          19.1585   -8.1423   14.7294 C.2     1  UNL1        0.0000
    751 N          12.3082   -1.1956   19.8068 N.pl3   1  UNL1        0.0000
    752 N          19.0354   -8.7453   15.9488 N.2     1  UNL1        0.0000
    753 N          18.4132   -8.1127   24.2349 N.3     1  UNL1        0.0000
    754 N           4.2682    1.6064   19.5708 N.pl3   1  UNL1        0.0000
    755 N          19.5070   -2.2113   21.0019 N.3     1  UNL1        0.0000
    756 N          17.5385  -11.8005   22.7848 N.3     1  UNL1        0.0000
    757 O          19.0386   -1.7870   18.4291 O.2     1  UNL1        0.0000
    758 O           8.4582   -5.5161   21.7587 O.3     1  UNL1        0.0000
    759 O          15.5601  -10.1538   23.4005 O.2     1  UNL1        0.0000
    760 O          11.9733    2.8722   16.8310 O.3     1  UNL1        0.0000
    761 O          13.3420    2.0336   18.4254 O.3     1  UNL1        0.0000
    762 O          14.2973   -9.2386   21.7709 O.2     1  UNL1        0.0000
    763 O          20.3682   -2.7379   16.8716 O.2     1  UNL1        0.0000
    764 O           7.2891   -4.4228   23.3581 O.3     1  UNL1        0.0000
    765 O          17.6903   -2.4282   16.0905 O.3     1  UNL1        0.0000
    766 O           9.9450   -4.8499   24.0337 O.3     1  UNL1        0.0000
    767 O          19.0948   -0.4063   16.0091 O.3     1  UNL1        0.0000
    768 O           8.4658   -6.8039   24.2328 O.3     1  UNL1        0.0000
    769 O          12.9175   -9.9692   24.0344 O.3     1  UNL1        0.0000
    770 O          14.6153    2.7490   16.1265 O.3     1  UNL1        0.0000
    771 O          14.1470   -7.8523   24.2739 O.3     1  UNL1        0.0000
    772 O          13.4665    0.5761   15.9819 O.3     1  UNL1        0.0000
    773 O          16.3443   -1.5842   18.5281 O.3     1  UNL1        0.0000
    774 O          11.1578   -5.7416   21.5931 O.3     1  UNL1        0.0000
    775 O          18.1140    0.7506   18.2856 O.2     1  UNL1        0.0000
    776 O           9.4684   -8.1337   21.9943 O.2     1  UNL1        0.0000
    777 O          14.5925  -11.4432   25.7215 O.3     1  UNL1        0.0000
    778 O          12.8967    4.1366   14.5441 O.3     1  UNL1        0.0000
    779 O          16.3777   -9.1129   25.6213 O.2     1  UNL1        0.0000
    780 O          11.2136    1.7352   14.5302 O.3     1  UNL1        0.0000
    781 O          16.2503    1.9984   18.2675 O.2     1  UNL1        0.0000
    782 O          11.4472   -9.1930   21.8475 O.2     1  UNL1        0.0000
    783 O          14.4729   -0.3255   18.5246 O.3     1  UNL1        0.0000
    784 O          13.1430   -6.8151   21.7377 O.3     1  UNL1        0.0000
    785 O          21.1757   -1.6224   14.4625 O.2     1  UNL1        0.0000
    786 O           6.4285   -5.4928   25.6933 O.2     1  UNL1        0.0000
    787 O          19.4156   -3.9745   14.5582 O.2     1  UNL1        0.0000
    788 O           8.3333   -3.2489   25.7222 O.3     1  UNL1        0.0000
    789 O          16.1556    0.0622   16.2548 O.3     1  UNL1        0.0000
    790 O          11.4149   -7.3029   23.9114 O.3     1  UNL1        0.0000
    791 O          18.5599   -1.5055   13.4283 O.3     1  UNL1        0.0000
    792 O           9.0335   -5.7723   26.7789 O.3     1  UNL1        0.0000
    793 TI          6.9016   17.5069   11.5368 Ti      1  UNL1        0.0000
    794 TI         17.9031   20.5901    1.8452 Ti      1  UNL1        0.0000
    795 TI         11.4475   14.2059    9.6194 Ti      1  UNL1        0.0000
    796 TI         13.3098   23.8898    3.7585 Ti      1  UNL1        0.0000
    797 TI         11.6206   24.7663    1.8002 Ti      1  UNL1        0.0000
    798 TI         12.9365   13.0524   11.5819 Ti      1  UNL1        0.0000
    799 TI          8.3415   16.2076    9.6315 Ti      1  UNL1        0.0000
    800 TI         16.1952   21.6316    3.7025 Ti      1  UNL1        0.0000
    801 H          13.5228   16.8908    7.1186 H       1  UNL1        0.0000
    802 H           9.8627   11.2066    7.4433 H       1  UNL1        0.0000
    803 H          14.9389   26.6882    5.9705 H       1  UNL1        0.0000
    804 H           6.8963   21.5267   11.3581 H       1  UNL1        0.0000
    805 H          17.7483   16.4601    2.1665 H       1  UNL1        0.0000
    806 H           3.1531   15.8782   11.2168 H       1  UNL1        0.0000
    807 H          21.5706   22.0834    2.0058 H      15  UNL15       0.0000
    808 H          13.1829    8.8964   11.2866 H       1  UNL1        0.0000
    809 H           7.7246   23.3670    2.0958 H       5  UNL5        0.0000
    810 H          14.6469   18.8502    6.0204 H       1  UNL1        0.0000
    811 H           9.9015   19.1784    7.4369 H       1  UNL1        0.0000
    812 H          22.1902   13.4238    7.2727 H       1  UNL1        0.0000
    813 H           7.7432   15.8764   13.2896 H       1  UNL1        0.0000
    814 H          16.8650   22.0453    0.0226 H       1  UNL1        0.0000
    815 H          10.3255   15.8803   11.1883 H       1  UNL1        0.0000
    816 H          14.2384   22.1394    2.1610 H       1  UNL1        0.0000
    817 H          13.5388   12.8605    6.1305 H       1  UNL1        0.0000
    818 H          11.1571   25.0419    7.2704 H       1  UNL1        0.0000
    819 H           3.8497   19.2980    9.1482 H       1  UNL1        0.0000
    820 H          20.7637   18.6577    4.3122 H       1  UNL1        0.0000
    821 H           6.2990   17.6509    6.0229 H       1  UNL1        0.0000
    822 H           8.6998   26.9492    4.3009 H       1  UNL1        0.0000
    823 H           9.8412   21.3726    6.5178 H       1  UNL1        0.0000
    824 H          11.2468   22.1407    5.8096 H       1  UNL1        0.0000
    825 H          11.4478   27.9853    2.5806 H      14  UNL14       0.0000
    826 H          17.7286   14.4090    3.3716 H       1  UNL1        0.0000
    827 H          17.3481   14.9262    9.9996 H       1  UNL1        0.0000
    828 H          16.0053   14.1148   10.7782 H       1  UNL1        0.0000
    829 H           3.8053   24.2610    6.3064 H       1  UNL1        0.0000
    830 H          18.4357   23.5217    5.5086 H      15  UNL15       0.0000
    831 H          17.9670   20.6178    8.5733 H       1  UNL1        0.0000
    832 H          17.4593   20.8779    6.9126 H       1  UNL1        0.0000
    833 H          16.9305   10.2973    9.5610 H       1  UNL1        0.0000
    834 H          15.5944   11.2857   10.1283 H       1  UNL1        0.0000
    835 C          18.5959   20.0988    4.6873 C.2     1  UNL1        0.0000
    836 C           6.0486   17.8631    8.7224 C.3     1  UNL1        0.0000
    837 C          13.8148   12.6300    8.7387 C.3     1  UNL1        0.0000
    838 C          10.8500   25.3134    4.6390 C.2     1  UNL1        0.0000
    839 C          19.4379   19.5326    5.7515 C.2     1  UNL1        0.0000
    840 C           5.1483   18.4325    7.6825 C.ar    1  UNL1        0.0000
    841 C          14.6613   11.9748    7.7281 C.ar    1  UNL1        0.0000
    842 C          10.0086   25.9365    5.6993 C.2     1  UNL1        0.0000
    843 C          19.1458   19.7244    7.1416 C.3     1  UNL1        0.0000
    844 C           5.4258   18.2279    6.3136 C.ar    1  UNL1        0.0000
    845 C          15.7536   11.1163    8.0840 C.ar    1  UNL1        0.0000
    846 C           8.9239   26.7701    5.3487 C.3     1  UNL1        0.0000
    847 C          10.3152   25.6896    7.0332 C.3     1  UNL1        0.0000
    848 C          14.3759   12.2055    6.3623 C.ar    1  UNL1        0.0000
    849 C          20.5767   18.7829    5.3762 C.3     1  UNL1        0.0000
    850 C           4.0356   19.1636    8.0844 C.ar    1  UNL1        0.0000
    851 C          12.9254   20.1239    6.1156 C.ar    1  UNL1        0.0000
    852 C          11.6413   17.9368    7.3253 C.ar    1  UNL1        0.0000
    853 C          16.6937   25.4568    5.9823 C.2     1  UNL1        0.0000
    854 C           8.0885   12.4045    7.4181 C.ar    1  UNL1        0.0000
    855 C          17.8463   16.5373    0.0311 C.2     1  UNL1        0.0000
    856 C          11.5308   28.8742    0.0837 C.3     1  UNL1        0.0000
    857 C          16.7735   14.5169   13.2787 C.2     1  UNL1        0.0000
    858 C           3.1752   15.9638   13.3538 C.ar    1  UNL1        0.0000
    859 C          13.6388   21.2043    5.4137 C.3     1  UNL1        0.0000
    860 C          10.9534   16.7880    7.9855 C.3     1  UNL1        0.0000
    861 C          16.0197   24.4132    5.2014 C.2     1  UNL1        0.0000
    862 C           8.7348   13.5004    8.1923 C.3     1  UNL1        0.0000
    863 C          17.8938   18.0265    0.0302 C.2     1  UNL1        0.0000
    864 C          11.5181   27.4062    0.0416 C.3     1  UNL1        0.0000
    865 C          15.4876   13.8026   13.3139 C.2     1  UNL1        0.0000
    866 C           4.4705   16.7047   13.3799 C.3     1  UNL1        0.0000
    867 C          11.5578   20.2471    6.5247 C.ar    1  UNL1        0.0000
    868 C          12.9956   17.8240    6.9438 C.ar    1  UNL1        0.0000
    869 C          15.9709   26.6279    6.3074 C.3     1  UNL1        0.0000
    870 C           8.8271   11.2667    7.1130 C.ar    1  UNL1        0.0000
    871 C          17.7668   15.8734    1.2500 C.2     1  UNL1        0.0000
    872 C           6.8747   22.1147   12.2726 C.3     1  UNL1        0.0000
    873 C          22.0946   22.3649    1.0955 C.3    16  UNL16       0.0000
    874 C           2.6279   15.5995   12.1288 C.ar    1  UNL1        0.0000
    875 C           2.0550   25.3300    6.3973 C.3     1  UNL1        0.0000
    876 C          22.7442   12.5245    7.0193 C.2     1  UNL1        0.0000
    877 C          13.6106   18.9084    6.3447 C.ar    1  UNL1        0.0000
    878 C          10.9416   19.1213    7.1206 C.ar    1  UNL1        0.0000
    879 C          17.4249   14.8660   12.0508 C.3     1  UNL1        0.0000
    880 C           7.2754   23.0748    1.1513 C.2     5  UNL5        0.0000
    881 C          13.1267    8.3559   12.2271 C.ar    1  UNL1        0.0000
    882 C          17.6954   14.4624    1.3173 C.2     1  UNL1        0.0000
    883 N          10.8452   21.4092    6.3947 N.pl3   1  UNL1        0.0000
    884 N          17.5724   13.8594    2.5366 N.pl3   1  UNL1        0.0000
    885 N          16.9502   14.4921   10.8228 N.3     1  UNL1        0.0000
    886 N           2.8052   24.2112    6.1587 N.3     1  UNL1        0.0000
    887 N          18.0440   20.3935    7.5898 N.3     1  UNL1        0.0000
    888 N          16.0755   10.8042    9.3726 N.pl3   1  UNL1        0.0000
    889 O          17.5756   20.8178    5.0170 O.2     1  UNL1        0.0000
    890 O           6.9951   17.0887    8.3466 O.3     1  UNL1        0.0000
    891 O          14.0971   12.4510    9.9884 O.3     1  UNL1        0.0000
    892 O          10.5103   25.4770    3.4189 O.2     1  UNL1        0.0000
    893 O          11.8790   24.6384    5.0133 O.2     1  UNL1        0.0000
    894 O          12.8343   13.3662    8.3588 O.3     1  UNL1        0.0000
    895 O          18.9051   19.8669    3.4595 O.2     1  UNL1        0.0000
    896 O           5.8260   18.1820    9.9460 O.3     1  UNL1        0.0000
    897 O          16.2273   20.1766    2.6784 O.3     1  UNL1        0.0000
    898 O           8.4820   17.7549   10.6216 O.3     1  UNL1        0.0000
    899 O          17.6318   22.1985    2.5970 O.3     1  UNL1        0.0000
    900 O           7.0028   15.8009   10.8207 O.3     1  UNL1        0.0000
    901 O          11.4545   12.6355   10.6223 O.3     1  UNL1        0.0000
    902 O          13.1523   25.3537    2.7143 O.3     1  UNL1        0.0000
    903 O          12.6840   14.7525   10.8618 O.3     1  UNL1        0.0000
    904 O          12.0035   23.1808    2.5698 O.3     1  UNL1        0.0000
    905 O          14.8812   21.0206    5.1160 O.3     1  UNL1        0.0000
    906 O           9.6948   16.8631    8.1810 O.3     1  UNL1        0.0000
    907 O          16.6509   23.3553    4.8735 O.2     1  UNL1        0.0000
    908 O           8.0054   14.4711    8.5822 O.3     1  UNL1        0.0000
    909 O          13.1294   11.1615   12.3094 O.3     1  UNL1        0.0000
    910 O          11.4336   26.7414    1.1320 O.3     1  UNL1        0.0000
    911 O          14.9146   13.4919   12.2092 O.2     1  UNL1        0.0000
    912 O           9.7505   24.3399    1.1181 O.3     1  UNL1        0.0000
    913 O          14.7873   24.6032    4.8554 O.2     1  UNL1        0.0000
    914 O           9.9841   13.4118    8.4354 O.3     1  UNL1        0.0000
    915 O          13.0099   22.2792    5.1125 O.3     1  UNL1        0.0000
    916 O          11.6800   15.7897    8.3256 O.3     1  UNL1        0.0000
    917 O          19.7127   20.9824    1.0504 O.3     1  UNL1        0.0000
    918 O           4.9655   17.1120   12.2811 O.3     1  UNL1        0.0000
    919 O          17.9526   18.6303    1.1461 O.2     1  UNL1        0.0000
    920 O           6.8702   19.3558   12.3101 O.2     1  UNL1        0.0000
    921 O          14.6926   22.6670    2.8426 O.3     1  UNL1        0.0000
    922 O           9.9519   15.3019   10.4993 O.3     1  UNL1        0.0000
    923 O          17.0969   21.0993    0.0162 O.3     1  UNL1        0.0000
    924 O           7.5705   16.8325   13.3668 O.3     1  UNL1        0.0000
    925 TI          2.1653   10.0422   24.9489 Ti      1  UNL1        0.0000
    926 TI         13.1668   13.1253   15.2573 Ti      1  UNL1        0.0000
    927 TI          6.7112    6.7412   23.0316 Ti      1  UNL1        0.0000
    928 TI          8.5736   16.4251   17.1706 Ti      1  UNL1        0.0000
    929 TI          6.8843   17.3015   15.2123 Ti      1  UNL1        0.0000
    930 TI          8.2002    5.5877   24.9940 Ti      1  UNL1        0.0000
    931 TI          3.6053    8.7429   23.0436 Ti      1  UNL1        0.0000
    932 TI         11.4589   14.1668   17.1146 Ti      1  UNL1        0.0000
    933 H           8.7866    9.4261   20.5307 H       1  UNL1        0.0000
    934 H           5.1264    3.7419   20.8554 H       1  UNL1        0.0000
    935 H          10.2027   19.2234   19.3826 H       1  UNL1        0.0000
    936 H           2.1600   14.0620   24.7702 H      16  UNL16       0.0000
    937 H          13.0120    8.9954   15.5786 H       1  UNL1        0.0000
    938 H          -1.5832    8.4134   24.6290 H       1  UNL1        0.0000
    939 H          16.8344   14.6187   15.4179 H       1  UNL1        0.0000
    940 H           8.4467    1.4317   24.6987 H      12  UNL12       0.0000
    941 H           2.9884   15.9023   15.5079 H       1  UNL1        0.0000
    942 H           9.9106   11.3855   19.4325 H       1  UNL1        0.0000
    943 H           5.1653   11.7137   20.8490 H       1  UNL1        0.0000
    944 H          17.4540    5.9591   20.6849 H       1  UNL1        0.0000
    945 H           3.0069    8.4117   26.7017 H       1  UNL1        0.0000
    946 H          12.1287   14.5806   13.4347 H       1  UNL1        0.0000
    947 H           5.5892    8.4156   24.6004 H       1  UNL1        0.0000
    948 H           9.5021   14.6747   15.5731 H       1  UNL1        0.0000
    949 H           8.8025    5.3957   19.5426 H       1  UNL1        0.0000
    950 H           6.4208   17.5772   20.6825 H       1  UNL1        0.0000
    951 H          -0.8866   11.8333   22.5603 H       1  UNL1        0.0000
    952 H          16.0275   11.1929   17.7243 H       1  UNL1        0.0000
    953 H           1.5627   10.1862   19.4351 H       1  UNL1        0.0000
    954 H           3.9635   19.4845   17.7130 H       1  UNL1        0.0000
    955 H           5.1049   13.9079   19.9299 H       1  UNL1        0.0000
    956 H           6.5105   14.6760   19.2218 H       1  UNL1        0.0000
    957 H           6.7115   20.5206   15.9927 H      17  UNK17       0.0000
    958 H          12.9923    6.9443   16.7837 H       1  UNL1        0.0000
    959 H          12.6118    7.4615   23.4117 H       1  UNL1        0.0000
    960 H          11.2690    6.6501   24.1903 H       1  UNL1        0.0000
    961 H          -0.9309   16.7963   19.7185 H       1  UNL1        0.0000
    962 H          13.6994   16.0569   18.9207 H      18  UNK18       0.0000
    963 H          13.2307   13.1531   21.9855 H       1  UNL1        0.0000
    964 H          12.7230   13.4132   20.3247 H       1  UNL1        0.0000
    965 H          12.1943    2.8326   22.9731 H       1  UNL1        0.0000
    966 H          10.8581    3.8209   23.5404 H       1  UNL1        0.0000
    967 C          13.8597   12.6341   18.0994 C.2     1  UNL1        0.0000
    968 C           1.3123   10.3984   22.1346 C.3     1  UNL1        0.0000
    969 C           9.0785    5.1652   22.1508 C.3     1  UNL1        0.0000
    970 C           6.1138   17.8487   18.0511 C.2     1  UNL1        0.0000
    971 C          14.7017   12.0679   19.1636 C.2     1  UNL1        0.0000
    972 C           0.4120   10.9678   21.0946 C.ar    1  UNL1        0.0000
    973 C           9.9250    4.5100   21.1402 C.ar    1  UNL1        0.0000
    974 C           5.2723   18.4717   19.1114 C.2     1  UNL1        0.0000
    975 C          14.4095   12.2597   20.5537 C.3     1  UNL1        0.0000
    976 C           0.6895   10.7632   19.7257 C.ar    1  UNL1        0.0000
    977 C          11.0173    3.6516   21.4961 C.ar    1  UNL1        0.0000
    978 C           4.1877   19.3054   18.7608 C.3     1  UNL1        0.0000
    979 C           5.5789   18.2249   20.4453 C.3     1  UNL1        0.0000
    980 C           9.6397    4.7408   19.7744 C.ar    1  UNL1        0.0000
    981 C          15.8405   11.3182   18.7883 C.3     1  UNL1        0.0000
    982 C          -0.7006   11.6989   21.4965 C.ar    1  UNL1        0.0000
    983 C           8.1891   12.6592   19.5277 C.ar    1  UNL1        0.0000
    984 C           6.9050   10.4720   20.7374 C.ar    1  UNL1        0.0000
    985 C          11.9574   17.9921   19.3944 C.2     1  UNL1        0.0000
    986 C           3.3523    4.9398   20.8302 C.ar    1  UNL1        0.0000
    987 C          13.1101    9.0726   13.4432 C.ar    1  UNL1        0.0000
    988 C           6.7945   21.4095   13.4958 C.2     1  UNL1        0.0000
    989 C          12.0372    7.0521   26.6908 C.2     1  UNL1        0.0000
    990 C          -1.5611    8.4991   26.7659 C.2     1  UNL1        0.0000
    991 C           8.9026   13.7396   18.8258 C.3     1  UNL1        0.0000
    992 C           6.2171    9.3232   21.3976 C.3     1  UNL1        0.0000
    993 C          11.2835   16.9484   18.6135 C.2     1  UNL1        0.0000
    994 C           3.9985    6.0357   21.6044 C.3     1  UNL1        0.0000
    995 C          13.1576   10.5618   13.4423 C.3     1  UNL1        0.0000
    996 C           6.7818   19.9415   13.4537 C.2     1  UNL1        0.0000
    997 C          10.7514    6.3378   26.7260 C.2     1  UNL1        0.0000
    998 C          -0.2657    9.2400   26.7920 C.2     1  UNL1        0.0000
    999 C           6.8215   12.7824   19.9368 C.ar    1  UNL1        0.0000
   1000 C           8.2593   10.3593   20.3559 C.ar    1  UNL1        0.0000
   1001 C          11.2347   19.1632   19.7195 C.3     1  UNL1        0.0000
   1002 C           4.0909    3.8019   20.5252 C.ar    1  UNL1        0.0000
   1003 C          13.0305    8.4087   14.6622 C.ar    1  UNL1        0.0000
   1004 C           2.1384   14.6500   25.6847 C.3    19  UNL19       0.0000
   1005 C          17.3583   14.9001   14.5077 C.3     1  UNL1        0.0000
   1006 C          -2.1083    8.1348   25.5409 C.2     1  UNL1        0.0000
   1007 C          -2.6813   17.8652   19.8094 C.3     1  UNL1        0.0000
   1008 C          18.0079    5.0598   20.4314 C.2     1  UNL1        0.0000
   1009 C           8.8743   11.4436   19.7569 C.ar    1  UNL1        0.0000
   1010 C           6.2053   11.6566   20.5328 C.ar    1  UNL1        0.0000
   1011 C          12.6886    7.4012   25.4629 C.3     1  UNL1        0.0000
   1012 C           2.5391   15.6101   14.5634 C.ar    1  UNL1        0.0000
   1013 C           8.3905    0.8912   25.6392 C.2    12  UNL12       0.0000
   1014 C          12.9592    6.9977   14.7294 C.ar    1  UNL1        0.0000
   1015 N           6.1089   13.9445   19.8068 N.pl3   1  UNL1        0.0000
   1016 N          12.8362    6.3947   15.9488 N.pl3   1  UNL1        0.0000
   1017 N          12.2139    7.0274   24.2349 N.3     1  UNL1        0.0000
   1018 N          -1.9310   16.7464   19.5708 N.3     1  UNL1        0.0000
   1019 N          13.3077   12.9288   21.0019 N.3     1  UNL1        0.0000
   1020 N          11.3392    3.3395   22.7848 N.pl3   1  UNL1        0.0000
   1021 O          12.8393   13.3531   18.4291 O.2     1  UNL1        0.0000
   1022 O           2.2589    9.6240   21.7587 O.3     1  UNL1        0.0000
   1023 O           9.3608    4.9863   23.4005 O.3     1  UNL1        0.0000
   1024 O           5.7740   18.0123   16.8310 O.2     1  UNL1        0.0000
   1025 O           7.1427   17.1736   18.4254 O.2     1  UNL1        0.0000
   1026 O           8.0981    5.9015   21.7709 O.3     1  UNL1        0.0000
   1027 O          14.1689   12.4022   16.8716 O.2     1  UNL1        0.0000
   1028 O           1.0898   10.7172   23.3581 O.3     1  UNL1        0.0000
   1029 O          11.4910   12.7119   16.0905 O.3     1  UNL1        0.0000
   1030 O           3.7457   10.2901   24.0337 O.3     1  UNL1        0.0000
   1031 O          12.8955   14.7338   16.0091 O.3     1  UNL1        0.0000
   1032 O           2.2665    8.3362   24.2328 O.3     1  UNL1        0.0000
   1033 O           6.7182    5.1708   24.0344 O.3     1  UNL1        0.0000
   1034 O           8.4160   17.8890   16.1265 O.3     1  UNL1        0.0000
   1035 O           7.9477    7.2878   24.2739 O.3     1  UNL1        0.0000
   1036 O           7.2672   15.7161   15.9819 O.3     1  UNL1        0.0000
   1037 O          10.1450   13.5559   18.5281 O.3     1  UNL1        0.0000
   1038 O           4.9585    9.3984   21.5931 O.3     1  UNL1        0.0000
   1039 O          11.9147   15.8906   18.2856 O.2     1  UNL1        0.0000
   1040 O           3.2691    7.0064   21.9943 O.3     1  UNL1        0.0000
   1041 O           8.3932    3.6968   25.7215 O.3     1  UNL1        0.0000
   1042 O           6.6974   19.2767   14.5441 O.2     1  UNL1        0.0000
   1043 O          10.1784    6.0272   25.6213 O.2     1  UNL1        0.0000
   1044 O           5.0143   16.8752   14.5302 O.3     1  UNL1        0.0000
   1045 O          10.0511   17.1385   18.2675 O.2     1  UNL1        0.0000
   1046 O           5.2479    5.9471   21.8475 O.3     1  UNL1        0.0000
   1047 O           8.2736   14.8145   18.5246 O.3     1  UNL1        0.0000
   1048 O           6.9437    8.3250   21.7377 O.3     1  UNL1        0.0000
   1049 O          14.9765   13.5176   14.4625 O.2     1  UNL1        0.0000
   1050 O           0.2292    9.6473   25.6933 O.2     1  UNL1        0.0000
   1051 O          13.2163   11.1656   14.5582 O.3     1  UNL1        0.0000
   1052 O           2.1340   11.8911   25.7222 O.3     1  UNL1        0.0000
   1053 O           9.9563   15.2023   16.2548 O.3     1  UNL1        0.0000
   1054 O           5.2156    7.8371   23.9114 O.3     1  UNL1        0.0000
   1055 O          12.3606   13.6346   13.4283 O.3     1  UNL1        0.0000
   1056 O           2.8342    9.3677   26.7789 O.3     1  UNL1        0.0000
@<TRIPOS>BOND
     1   659   550    1
     2   659   530    1
     3   131    22    1
     4   131     2    1
     5   395   286    1
     6   395   266    1
     7   923   814    1
     8   923   794    1
     9   599   591    2
    10   599   655    1
    11    71    63    2
    12    71   127    1
    13   863   855    2
    14   863   919    1
    15   335   327    2
    16   335   391    1
    17   591   607    1
    18   855   871    1
    19    63    79    1
    20   327   343    1
    21   864   856    1
    22   864   910    1
    23   336   328    1
    24   336   382    1
    25    72    64    2
    26    72   118    1
    27   600   592    2
    28   600   646    1
    29    64   354    1
    30   592   882    1
    31   125     2    1
    32   389   266    1
    33   917   794    1
    34   653   530    1
    35   873   807    1
    36   345   880    2
    37   345   279    1
    38    81   616    2
    39    81    15    1
    40   609   543    1
    41   120     5    1
    42   912   797    1
    43   648   533    1
    44   384   269    1
    45   382   269    1
    46   646   533    1
    47   910   797    1
    48   118     5    1
    49   655   530    1
    50   391   266    1
    51   127     2    1
    52   919   794    1
    53   880   809    1
    54   616   545    1
    55   352   281    1
    56    88    17    1
    57   871   882    2
    58   871   805    1
    59   607   618    1
    60   607   541    1
    61   343   354    2
    62   343   277    1
    63    79    90    1
    64    79    13    1
    65   618   620    2
    66    90    92    2
    67   354   356    1
    68   882   884    1
    69   533   640    1
    70   533   638    1
    71   533   628    1
    72   269   376    1
    73   269   374    1
    74   269   364    1
    75   797   904    1
    76   797   902    1
    77   797   892    1
    78     5   112    1
    79     5   110    1
    80     5   100    1
    81   530   635    1
    82   530   633    1
    83   530   631    1
    84   266   371    1
    85   266   369    1
    86   266   367    1
    87     2   107    1
    88     2   105    1
    89     2   103    1
    90   794   899    1
    91   794   897    1
    92   794   895    1
    93   552   657    1
    94    24   129    1
    95   288   393    1
    96   816   921    1
    97   620   562    1
    98    92    34    1
    99   356    33    1
   100   356   298    1
   101   884   561    1
   102   884   826    1
   103   376   268    1
   104   640   532    1
   105   904   796    1
   106   112     4    1
   107   371   272    1
   108   107     8    1
   109   899   800    1
   110   635   536    1
   111   369   272    1
   112   105     8    1
   113   897   800    1
   114   633   536    1
   115   902   796    1
   116   110     4    1
   117   638   532    1
   118   374   268    1
   119   129     8    1
   120   393   272    1
   121   921   800    1
   122   657   536    1
   123   100    46    1
   124   628   574    1
   125   364   310    1
   126   892   838    1
   127   631   571    1
   128   895   835    1
   129   103    43    1
   130   367   307    1
   131   536   643    1
   132   536   625    1
   133   536   641    1
   134   272   379    1
   135   272   361    1
   136   272   377    1
   137   800   907    1
   138   800   889    1
   139   800   905    1
   140     8   115    1
   141     8    97    1
   142     8   113    1
   143   796   913    1
   144   796   893    1
   145   796   915    1
   146   268   385    1
   147   268   365    1
   148   268   387    1
   149   532   649    1
   150   532   629    1
   151   532   651    1
   152     4   121    1
   153     4   101    1
   154     4   123    1
   155    30    54    1
   156   294   318    1
   157   822   846    1
   158   558   582    1
   159   556   585    1
   160   820   849    1
   161   292   321    1
   162    28    57    1
   163   838   893    1
   164   838   842    2
   165    46   101    1
   166    46    50    1
   167   310   365    1
   168   310   314    2
   169   574   629    1
   170   574   578    1
   171    43    97    1
   172    43    47    1
   173   307   361    1
   174   307   311    1
   175   571   625    1
   176   571   575    2
   177   835   889    1
   178   835   839    2
   179   385   333    1
   180   649   597    1
   181   121    69    1
   182   913   861    1
   183   379   333    1
   184   907   861    1
   185   115    69    1
   186   643   597    1
   187   915   859    1
   188   123    67    1
   189   651   595    1
   190   387   331    1
   191   377   331    1
   192   641   595    1
   193   113    67    1
   194   905   859    1
   195   597   589    2
   196   861   853    2
   197    69    61    1
   198   333   325    2
   199    54    50   ar
   200    54   320   ar
   201   318   314    1
   202   582   578   ar
   203   582   848   ar
   204   846   842    1
   205    57    47   ar
   206    57   580   ar
   207   585   575    1
   208   321   311   ar
   209   321   844   ar
   210   849   839    1
   211   595   587    1
   212   331   323    1
   213    67    59    1
   214   859   851    1
   215   302   886    1
   216    38   622    1
   217    50    55   ar
   218   578   583   ar
   219   842   847    1
   220   314   319    1
   221   575   579    1
   222    47    51   ar
   223   311   315   ar
   224   839   843    1
   225   560   619    1
   226   296   355    1
   227   824   883    1
   228    32    91    1
   229    11    77    1
   230   275   341    1
   231   803   869    1
   232   539   605    1
   233    61    77   ar
   234    61   611   ar
   235   589   605    1
   236   853   869    1
   237   325   341    1
   238   325   875    1
   239   546   613    1
   240   282   349    1
   241   810   877    1
   242    18    85    1
   243    29    52    1
   244   557   580    1
   245   821   844    1
   246   293   316    1
   247   323   349   ar
   248   323   339   ar
   249    59    85   ar
   250    59    75   ar
   251   587   613   ar
   252   587   603   ar
   253   851   877   ar
   254   851   867   ar
   255   817   848    1
   256   289   320    1
   257   553   584    1
   258    25    56    1
   259    94    37    1
   260    94    83    2
   261   622   565    1
   262   622   611    1
   263   358   301    1
   264   358   347    1
   265   886   829    1
   266   886   875    1
   267    77   348   ar
   268   605   876    2
   269   316   312    1
   270    52    48    1
   271   580   576   ar
   272   844   840   ar
   273   613   604   ar
   274    85    76   ar
   275   877   868   ar
   276   349   340   ar
   277    56    49    1
   278   320   313   ar
   279   848   841   ar
   280   584   577    1
   281   619   559    1
   282   619   603    1
   283   355   295    1
   284   355   339    1
   285    91    31    1
   286    91    75    1
   287   883   823    1
   288   883   867    1
   289    83   342    1
   290   611   870   ar
   291   603   614   ar
   292    75    86   ar
   293   339   350   ar
   294   867   878   ar
   295   304   359    1
   296    40    95    1
   297   832   887    1
   298   568   623    1
   299   340   273    1
   300   340   324   ar
   301   604   537    1
   302   604   588   ar
   303   868   801    1
   304   868   852   ar
   305    76     9    1
   306    76    60   ar
   307   612   548    1
   308   876   812    1
   309    84    20    1
   310    84   590    1
   311   348   284    1
   312   348   854   ar
   313   847   818    1
   314    55    26    1
   315    55   317   ar
   316   319   290    1
   317   583   554    1
   318   583   845   ar
   319   870   854   ar
   320   870   802    1
   321    78    62    1
   322    78    10    1
   323   342   326    1
   324   342   274    1
   325   606   590    1
   326   606   538    1
   327    86    60   ar
   328    86    19    1
   329   350   324   ar
   330   350   283    1
   331   878   852   ar
   332   878   811    1
   333   614   588   ar
   334   614   547    1
   335   843   887    1
   336   315   359    1
   337   315   850   ar
   338    51    95    1
   339    51   586   ar
   340   579   623    1
   341    60    68    1
   342   588   596    1
   343   852   860    1
   344   324   332    1
   345    62    70    2
   346   590   598    2
   347   326   334    2
   348   854   862    1
   349   887   831    1
   350   359   303    1
   351    95    39    1
   352   623   567    1
   353    48    58    1
   354    48    44    2
   355   576   586   ar
   356   576   572    1
   357   840   850   ar
   358   840   836    1
   359   312   322    1
   360   312   308    2
   361   313   317   ar
   362   313   309    1
   363   841   845   ar
   364   841   837    1
   365   577   581    1
   366   577   573    2
   367    49    53    1
   368    49    45    2
   369    68   114    1
   370    68   124    1
   371   860   906    1
   372   860   916    1
   373   332   378    1
   374   332   388    1
   375   596   642    1
   376   596   652    1
   377   845   888    1
   378    53    96    1
   379   317   360    1
   380   581   624    1
   381   850   819    1
   382   586   555    1
   383    58    27    1
   384   322   291    1
   385   378   271    1
   386   642   535    1
   387   906   799    1
   388   114     7    1
   389    70   122    1
   390    70   116    1
   391   598   650    1
   392   598   644    1
   393   862   914    1
   394   862   908    1
   395   334   386    1
   396   334   380    1
   397   388   267    1
   398   916   795    1
   399   652   531    1
   400   124     3    1
   401   890   836    1
   402   890   799    1
   403   362   308    1
   404   362   271    1
   405   626   572    1
   406   626   535    1
   407    98    44    1
   408    98     7    1
   409   102    45    1
   410   102     3    1
   411   630   573    1
   412   630   531    1
   413   894   837    1
   414   894   795    1
   415   366   309    1
   416   366   267    1
   417   386   267    1
   418   914   795    1
   419   122     3    1
   420   650   531    1
   421   908   799    1
   422   644   535    1
   423   380   271    1
   424   116     7    1
   425   572   632    1
   426    44   104    1
   427   308   368    1
   428   836   896    1
   429    45    99    1
   430   837   891    1
   431   573   627    1
   432   309   363    1
   433   888   833    1
   434   888   834    1
   435   624   569    1
   436   624   570    1
   437   360   305    1
   438   360   306    1
   439    96    41    1
   440    96    42    1
   441   267   373    1
   442   267   375    1
   443     3   109    1
   444     3   111    1
   445   795   901    1
   446   795   903    1
   447   531   637    1
   448   531   639    1
   449     7   130    1
   450     7   106    1
   451     7   108    1
   452   799   922    1
   453   799   898    1
   454   799   900    1
   455   271   394    1
   456   271   370    1
   457   271   372    1
   458   535   658    1
   459   535   634    1
   460   535   636    1
   461   104     1    1
   462   368   265    1
   463   896   793    1
   464   632   529    1
   465   891   798    1
   466   627   534    1
   467    99     6    1
   468   363   270    1
   469   563   621    1
   470   299   357    1
   471   827   885    1
   472    35    93    1
   473   922   815    1
   474   130    23    1
   475   394   287    1
   476   658   551    1
   477   106     1    1
   478   370   265    1
   479   898   793    1
   480   634   529    1
   481   637   534    1
   482   109     6    1
   483   901   798    1
   484   373   270    1
   485   564   621    1
   486    36    93    1
   487   828   885    1
   488   300   357    1
   489   900   793    1
   490   372   265    1
   491   636   529    1
   492   108     1    1
   493   357   351    1
   494    93    87    1
   495   621   615    1
   496   885   879    1
   497   375   270    1
   498   111     6    1
   499   903   798    1
   500   639   534    1
   501   278   346    1
   502   806   874    1
   503    14    82    1
   504   542   610    1
   505   808   881    1
   506   280   353    1
   507   544   617    1
   508    16    89    1
   509   804   872    1
   510    12    80    1
   511   540   608    1
   512   276   344    1
   513   529   654    1
   514   529   656    1
   515     1   126    1
   516     1   128    1
   517   793   918    1
   518   793   920    1
   519   265   390    1
   520   265   392    1
   521     6   119    1
   522     6   117    1
   523     6   263    1
   524   798   911    1
   525   798   909    1
   526   798  1055    1
   527   534   647    1
   528   534   645    1
   529   534   791    1
   530   270   383    1
   531   270   381    1
   532   270   527    1
   533   879   857    1
   534    87   610   ar
   535    87    65   ar
   536   351   874   ar
   537   351   329   ar
   538   615   593    1
   539    82    66    1
   540   610   594   ar
   541   874   858   ar
   542   346   330    1
   543   647   601    1
   544   383   337    1
   545   911   865    1
   546   119    73    1
   547   881   608   ar
   548   881   987   ar
   549   617   723    1
   550    89   195    1
   551   353    80   ar
   552   353   459   ar
   553   608   724   ar
   554    80   196   ar
   555   344   460    1
   556   872   988    1
   557   390   338    1
   558   918   866    1
   559   126    74    1
   560   654   602    1
   561   117   203    1
   562   645   731    1
   563   381   467    1
   564   909   995    1
   565   392   468    1
   566   128   204    1
   567   920   996    1
   568   656   732    1
   569   593   601    2
   570   593   741    1
   571    65    73    1
   572    65   213   ar
   573   329   337    1
   574   329   477   ar
   575   857   865    2
   576   857  1005    1
   577   813   924    1
   578   549   660    1
   579    21   132    1
   580   285   396    1
   581   601   785    1
   582   337   521    1
   583    73   257    1
   584   865  1049    1
   585   594   602    1
   586   594   748   ar
   587   330   338    2
   588   330   484    1
   589   858   866    1
   590   858  1012   ar
   591    66    74    2
   592    66   220    1
   593   132   137    1
   594   924   929    1
   595   660   665    1
   596   396   401    1
   597    74   252    1
   598   866  1044    1
   599   602   780    1
   600   338   516    1
   601  1055   946    1
   602   527   418    1
   603   791   682    1
   604   263   154    1
   605   731   723    2
   606   731   787    1
   607   467   459    1
   608   467   523    1
   609   203   195    2
   610   203   259    1
   611   995   987    1
   612   995  1051    1
   613   459   475   ar
   614   987  1003   ar
   615   723   739    1
   616   195   211    1
   617   732   724    1
   618   732   778    1
   619   468   460    2
   620   468   514    1
   621   204   196    1
   622   204   250    1
   623   996   988    2
   624   996  1042    1
   625   724  1014   ar
   626   196   486   ar
   627   521   398    1
   628   257   134    1
   629   785   662    1
   630  1049   926    1
   631   477  1012   ar
   632   477   411    1
   633   741   675    1
   634  1005   939    1
   635   213   748   ar
   636   213   147    1
   637  1044   929    1
   638   252   137    1
   639   516   401    1
   640   780   665    1
   641   250   137    1
   642   514   401    1
   643   778   665    1
   644  1042   929    1
   645  1051   926    1
   646   523   398    1
   647   259   134    1
   648   787   662    1
   649  1012   941    1
   650   748   677    1
   651   220   149    1
   652   484   413    1
   653   211   222    1
   654   211   145    1
   655  1003  1014   ar
   656  1003   937    1
   657   739   750    1
   658   739   673    1
   659   475   486   ar
   660   475   409    1
   661  1014  1016    1
   662   486   488    1
   663   750   752    2
   664   222   224    2
   665   665   772    1
   666   665   770    1
   667   665   760    1
   668   401   508    1
   669   401   506    1
   670   401   496    1
   671   137   244    1
   672   137   242    1
   673   137   232    1
   674   929  1036    1
   675   929  1034    1
   676   929  1024    1
   677   398   503    1
   678   398   501    1
   679   398   499    1
   680   134   239    1
   681   134   237    1
   682   134   235    1
   683   662   767    1
   684   662   765    1
   685   662   763    1
   686   926  1031    1
   687   926  1029    1
   688   926  1027    1
   689   684   789    1
   690   156   261    1
   691   948  1053    1
   692   420   525    1
   693   488   165    1
   694   488   430    1
   695   752   694    1
   696   224   166    1
   697  1016   693    1
   698  1016   958    1
   699   244   136    1
   700   772   664    1
   701   508   400    1
   702  1036   928    1
   703   767   668    1
   704   503   404    1
   705   239   140    1
   706  1031   932    1
   707   501   404    1
   708   765   668    1
   709   237   140    1
   710  1029   932    1
   711  1034   928    1
   712   506   400    1
   713   770   664    1
   714   242   136    1
   715   261   140    1
   716   525   404    1
   717   789   668    1
   718  1053   932    1
   719   760   706    1
   720   496   442    1
   721   232   178    1
   722  1024   970    1
   723   763   703    1
   724   235   175    1
   725   499   439    1
   726  1027   967    1
   727   932  1039    1
   728   932  1021    1
   729   932  1037    1
   730   140   247    1
   731   140   229    1
   732   140   245    1
   733   404   511    1
   734   404   493    1
   735   404   509    1
   736   668   775    1
   737   668   757    1
   738   668   773    1
   739   928  1045    1
   740   928  1025    1
   741   928  1047    1
   742   136   253    1
   743   136   233    1
   744   136   255    1
   745   400   517    1
   746   400   497    1
   747   400   519    1
   748   664   781    1
   749   664   761    1
   750   664   783    1
   751   426   450    1
   752   162   186    1
   753   690   714    1
   754   954   978    1
   755   688   717    1
   756   952   981    1
   757   160   189    1
   758   424   453    1
   759   442   497    1
   760   442   446    2
   761   706   761    1
   762   706   710    1
   763   970  1025    1
   764   970   974    2
   765   178   233    1
   766   178   182    1
   767   703   757    1
   768   703   707    2
   769   439   493    1
   770   439   443    1
   771   967  1021    1
   772   967   971    2
   773   175   229    1
   774   175   179    1
   775   253   201    1
   776   781   729    1
   777   517   465    1
   778  1045   993    1
   779   511   465    1
   780   775   729    1
   781  1039   993    1
   782   247   201    1
   783  1047   991    1
   784   519   463    1
   785   255   199    1
   786   783   727    1
   787   773   727    1
   788   245   199    1
   789   509   463    1
   790  1037   991    1
   791   201   193    1
   792   993   985    2
   793   729   721    2
   794   465   457    2
   795   450   446    1
   796   714   710   ar
   797   714   980   ar
   798   978   974    1
   799   186   182   ar
   800   186   452   ar
   801   981   971    1
   802   717   707    1
   803   453   443   ar
   804   453   976   ar
   805   189   179   ar
   806   189   712   ar
   807   199   191    1
   808   991   983    1
   809   463   455    1
   810   727   719    1
   811   170   754    1
   812   434  1018    1
   813   710   715   ar
   814   974   979    1
   815   446   451    1
   816   182   187   ar
   817   179   183   ar
   818   443   447   ar
   819   707   711    1
   820   971   975    1
   821   692   751    1
   822   428   487    1
   823   164   223    1
   824   956  1015    1
   825   407   473    1
   826   143   209    1
   827   935  1001    1
   828   671   737    1
   829   457   473    1
   830   457  1007    1
   831   193   209   ar
   832   193   743   ar
   833   985  1001    1
   834   721   737    1
   835   150   217    1
   836   942  1009    1
   837   678   745    1
   838   414   481    1
   839   161   184    1
   840   689   712    1
   841   953   976    1
   842   425   448    1
   843   191   217   ar
   844   191   207   ar
   845   983  1009   ar
   846   983   999   ar
   847   455   481   ar
   848   455   471   ar
   849   719   745   ar
   850   719   735   ar
   851   421   452    1
   852   949   980    1
   853   157   188    1
   854   685   716    1
   855  1018   961    1
   856  1018  1007    1
   857   490   433    1
   858   490   479    1
   859   754   697    1
   860   754   743    1
   861   226   169    1
   862   226   215    2
   863   209   480   ar
   864   737  1008    2
   865   976   972   ar
   866   448   444    1
   867   184   180    1
   868   712   708   ar
   869   217   208   ar
   870   745   736   ar
   871  1009  1000   ar
   872   481   472   ar
   873   716   709    1
   874   188   181    1
   875   980   973   ar
   876   452   445   ar
   877   487   427    1
   878   487   471    1
   879   223   163    1
   880   223   207    1
   881   751   691    1
   882   751   735    1
   883  1015   955    1
   884  1015   999    1
   885   215   474    1
   886   743  1002   ar
   887   207   218   ar
   888   999  1010   ar
   889   471   482   ar
   890   735   746   ar
   891   700   755    1
   892   964  1019    1
   893   172   227    1
   894   436   491    1
   895   208   141    1
   896   208   192   ar
   897  1000   933    1
   898  1000   984   ar
   899   472   405    1
   900   472   456   ar
   901   736   669    1
   902   736   720   ar
   903   744   680    1
   904   216   152    1
   905   216   722    1
   906   480   416    1
   907   480   986   ar
   908  1008   944    1
   909   979   950    1
   910   187   158    1
   911   187   449   ar
   912   715   686    1
   913   715   977   ar
   914   451   422    1
   915   474   458    1
   916   474   406    1
   917   738   722    1
   918   738   670    1
   919   210   194    1
   920   210   142    1
   921  1002   986   ar
   922  1002   934    1
   923  1010   984   ar
   924  1010   943    1
   925   218   192   ar
   926   218   151    1
   927   746   720   ar
   928   746   679    1
   929   482   456   ar
   930   482   415    1
   931   183   227    1
   932   183   718   ar
   933   447   491    1
   934   447   982   ar
   935   975  1019    1
   936   711   755    1
   937   984   992    1
   938   720   728    1
   939   192   200    1
   940   456   464    1
   941   986   994    1
   942   722   730    2
   943   194   202    2
   944   458   466    2
   945   755   699    1
   946  1019   963    1
   947   227   171    1
   948   491   435    1
   949   444   454    1
   950   444   440    2
   951   972   982   ar
   952   972   968    1
   953   708   718   ar
   954   708   704    1
   955   180   190    1
   956   180   176    2
   957   445   449   ar
   958   445   441    1
   959   181   185    1
   960   181   177    2
   961   973   977   ar
   962   973   969    1
   963   709   713    1
   964   709   705    2
   965   200   246    1
   966   200   256    1
   967   464   510    1
   968   464   520    1
   969   728   774    1
   970   728   784    1
   971   992  1038    1
   972   992  1048    1
   973   713   756    1
   974   977  1020    1
   975   449   492    1
   976   185   228    1
   977   718   687    1
   978   454   423    1
   979   982   951    1
   980   190   159    1
   981   510   403    1
   982  1038   931    1
   983   246   139    1
   984   774   667    1
   985   994  1046    1
   986   994  1040    1
   987   466   518    1
   988   466   512    1
   989   730   782    1
   990   730   776    1
   991   202   254    1
   992   202   248    1
   993  1048   927    1
   994   256   135    1
   995   784   663    1
   996   520   399    1
   997   230   176    1
   998   230   139    1
   999   758   704    1
  1000   758   667    1
  1001  1022   968    1
  1002  1022   931    1
  1003   494   440    1
  1004   494   403    1
  1005   498   441    1
  1006   498   399    1
  1007   234   177    1
  1008   234   135    1
  1009  1026   969    1
  1010  1026   927    1
  1011   762   705    1
  1012   762   663    1
  1013   254   135    1
  1014   782   663    1
  1015  1046   927    1
  1016   518   399    1
  1017  1040   931    1
  1018   248   139    1
  1019   776   667    1
  1020   512   403    1
  1021   176   236    1
  1022   968  1028    1
  1023   440   500    1
  1024   704   764    1
  1025   705   759    1
  1026   177   231    1
  1027   441   495    1
  1028   969  1023    1
  1029   756   701    1
  1030   756   702    1
  1031  1020   965    1
  1032  1020   966    1
  1033   492   437    1
  1034   492   438    1
  1035   228   173    1
  1036   228   174    1
  1037   663   769    1
  1038   663   771    1
  1039   399   505    1
  1040   399   507    1
  1041   927  1033    1
  1042   927  1035    1
  1043   135   241    1
  1044   135   243    1
  1045   931  1054    1
  1046   931  1030    1
  1047   931  1032    1
  1048   403   526    1
  1049   403   502    1
  1050   403   504    1
  1051   139   262    1
  1052   139   238    1
  1053   139   240    1
  1054   667   790    1
  1055   667   766    1
  1056   667   768    1
  1057   236   133    1
  1058   500   397    1
  1059   764   661    1
  1060  1028   925    1
  1061   759   666    1
  1062  1023   930    1
  1063   495   402    1
  1064   231   138    1
  1065   695   753    1
  1066   959  1017    1
  1067   167   225    1
  1068   431   489    1
  1069   262   155    1
  1070  1054   947    1
  1071   526   419    1
  1072   790   683    1
  1073   502   397    1
  1074  1030   925    1
  1075   238   133    1
  1076   766   661    1
  1077   505   402    1
  1078   769   666    1
  1079   241   138    1
  1080  1033   930    1
  1081   432   489    1
  1082   960  1017    1
  1083   696   753    1
  1084   168   225    1
  1085   504   397    1
  1086  1032   925    1
  1087   240   133    1
  1088   768   661    1
  1089   489   483    1
  1090   753   747    1
  1091   225   219    1
  1092  1017  1011    1
  1093   771   666    1
  1094  1035   930    1
  1095   507   402    1
  1096   243   138    1
  1097   410   478    1
  1098   938  1006    1
  1099   674   742    1
  1100   146   214    1
  1101   412   485    1
  1102   940  1013    1
  1103   676   749    1
  1104   148   221    1
  1105   408   476    1
  1106   936  1004    1
  1107   672   740    1
  1108   144   212    1
  1109   397   522    1
  1110   397   524    1
  1111   397   528    1
  1112   133   258    1
  1113   133   260    1
  1114   133   264    1
  1115   661   786    1
  1116   661   788    1
  1117   661   792    1
  1118   925  1050    1
  1119   925  1052    1
  1120   925  1056    1
  1121   666   779    1
  1122   666   777    1
  1123   402   515    1
  1124   402   513    1
  1125   930  1043    1
  1126   930  1041    1
  1127   138   251    1
  1128   138   249    1
  1129   219   742    2
  1130   219   197    1
  1131  1011   989    1
  1132   483  1006    2
  1133   483   461    1
  1134   747   725    1
  1135   478   462    1
  1136  1006   990    1
  1137   742   726    1
  1138   214   198    1
  1139   515   469    1
  1140   251   205    1
  1141   779   733    1
  1142  1043   997    1
  1143   485   212    2
  1144  1013   740    2
  1145   522   470    1
  1146   258   206    1
  1147   786   734    1
  1148  1050   998    1
  1149   725   733    2
  1150   461   469    2
  1151   989   997    2
  1152   197   205    2
  1153   153   264    1
  1154   681   792    1
  1155   945  1056    1
  1156   417   528    1
  1157   990   998    2
  1158   198   206    2
  1159   726   734    2
  1160   462   470    2
