@<TRIPOS>MOLECULE
i =      109, E =     -1723.1188574397
 40 39 0 0 0
SMALL
GASTEIGER

@<TRIPOS>ATOM
      1 H          -5.2608   17.5015   15.2368 H       1  UNL1        0.0428
      2 H          -3.8353   18.5777   15.3659 H       1  UNL1        0.0428
      3 C          -4.1872   17.5875   15.0481 C.3     1  UNL1        0.0020
      4 H          -5.8153   18.2724   12.8449 H       1  UNL1        0.0793
      5 H          -3.6550   16.7923   15.5783 H       1  UNL1        0.0428
      6 C          -4.8208   17.9077   12.6226 C.2     1  UNL1        0.0072
      7 N          -3.9588   17.4424   13.6034 N.pl3   1  UNL1       -0.3166
      8 O          -3.1360   20.7975   15.3200 O.2     2  UNL2       -0.1468
      9 N          -4.2495   21.3363   13.1822 N.3     2  UNL2        0.0775
     10 C          -4.1357   17.8676   11.4370 C.2     1  UNL1        0.0074
     11 S          -2.8917   20.8842   13.8868 S.O2    2  UNL2        0.1638
     12 C          -2.7778   17.1396   13.0252 C.3     1  UNL1        0.1250
     13 H          -1.8985   16.7837   13.5446 H       1  UNL1        0.0746
     14 H          -4.4350   18.1868   10.4483 H       1  UNL1        0.0793
     15 N          -2.8701   17.3841   11.7078 N.pl3   1  UNL1       -0.3135
     16 O          -2.1774   19.7889   13.2323 O.2     2  UNL2       -0.1468
     17 H          -0.2708   18.5392   12.6842 H       1  UNL1        0.0263
     18 C          -1.8004   17.2215   10.7027 C.3     1  UNL1        0.0135
     19 H          -2.3178   17.0328    9.7552 H       1  UNL1        0.0464
     20 H          -1.2586   16.3039   10.9599 H       1  UNL1        0.0464
     21 C           0.2105   18.4749   11.7001 C.3     1  UNL1       -0.0545
     22 C          -0.8647   18.4324   10.6059 C.3     1  UNL1       -0.0374
     23 H           0.7835   17.5370   11.6907 H       1  UNL1        0.0263
     24 H          -0.3851   18.3819    9.6153 H       1  UNL1        0.0280
     25 F          -2.2283   23.4297   14.2491 F       2  UNL2       -0.1492
     26 C          -1.7015   22.3038   13.7127 C.3     2  UNL2        0.5387
     27 F          -0.5423   21.9968   14.3586 F       2  UNL2       -0.1492
     28 F          -1.3988   22.5452   12.4109 F       2  UNL2       -0.1492
     29 C          -4.9995   23.0204   11.2787 C.3     2  UNL2        0.5387
     30 F          -3.9336   23.8502   11.4515 F       2  UNL2       -0.1492
     31 F          -5.4133   23.1367    9.9789 F       2  UNL2       -0.1492
     32 F          -5.9962   23.4563   12.0774 F       2  UNL2       -0.1492
     33 H           1.9193   19.6917   12.3350 H       1  UNL1        0.0230
     34 H           0.6120   20.6191   11.5723 H       1  UNL1        0.0230
     35 C           1.1610   19.6680   11.5405 C.3     1  UNL1       -0.0652
     36 O          -5.8729   20.5706   11.4240 O.2     2  UNL2       -0.1468
     37 S          -4.5880   21.2333   11.6137 S.O2    2  UNL2        0.1638
     38 O          -3.4882   20.9120   10.7079 O.2     2  UNL2       -0.1468
     39 H           1.6993   19.6155   10.5825 H       1  UNL1        0.0230
     40 H          -1.4632   19.3549   10.6154 H       1  UNL1        0.0280
@<TRIPOS>BOND
     1    24    22    1
     2    19    18    1
     3    31    29    1
     4    14    10    1
     5    39    35    1
     6    22    40    1
     7    22    18    1
     8    22    21    1
     9    18    20    1
    10    18    15    1
    11    38    37    2
    12    29    30    1
    13    29    37    1
    14    29    32    1
    15    36    37    2
    16    10    15    1
    17    10     6    2
    18    35    34    1
    19    35    21    1
    20    35    33    1
    21    37     9    1
    22    23    21    1
    23    21    17    1
    24    15    12    1
    25    28    26    1
    26     6     4    1
    27     6     7    1
    28    12    13    1
    29    12     7    1
    30     9    11    1
    31    16    11    2
    32     7     3    1
    33    26    11    1
    34    26    25    1
    35    26    27    1
    36    11     8    2
    37     3     1    1
    38     3     2    1
    39     3     5    1
