@<TRIPOS>MOLECULE
image0
 3564 4014 0 0 0
SMALL
GASTEIGER

@<TRIPOS>ATOM
      1 TI         -2.9034    2.3669   11.5368 Ti      1  UNL1        0.0000
      2 TI          8.0981    5.4500    1.8452 Ti      1  UNL1        0.0000
      3 TI          1.6425   -0.9341    9.6194 Ti      1  UNL1        0.0000
      4 TI          3.5048    8.7498    3.7585 Ti      1  UNL1        0.0000
      5 TI          1.8156    9.6262    1.8002 Ti      1  UNL1        0.0000
      6 TI          3.1315   -2.0876   11.5819 Ti      1  UNL1        0.0000
      7 TI         -1.4634    1.0675    9.6315 Ti      1  UNL1        0.0000
      8 TI          6.3902    6.4915    3.7025 Ti      1  UNL1        0.0000
      9 H           3.7179    1.7508    7.1186 H       1  UNL1        0.0000
     10 H           0.0577   -3.9334    7.4433 H       1  UNL1        0.0000
     11 H           5.1339   11.5481    5.9705 H       1  UNL1        0.0000
     12 H          -2.9087    6.3867   11.3581 H       1  UNL1        0.0000
     13 H           7.9433    1.3201    2.1665 H       1  UNL1        0.0000
     14 H          -6.6519    0.7381   11.2168 H       1  UNL1        0.0000
     15 H          11.7657    6.9434    2.0058 H       1  UNL1        0.0000
     16 H           3.3780   -6.2437   11.2866 H       1  UNL1        0.0000
     17 H          -2.0804    8.2270    2.0958 H       2  UNL2        0.0000
     18 H           4.8419    3.7101    6.0204 H       1  UNL1        0.0000
     19 H           0.0965    4.0384    7.4369 H       1  UNL1        0.0000
     20 H          12.3853   -1.7163    7.2727 H       1  UNL1        0.0000
     21 H          -2.0618    0.7364   13.2896 H       1  UNL1        0.0000
     22 H           7.0600    6.9052    0.0226 H       1  UNL1        0.0000
     23 H           0.5205    0.7403   11.1883 H       1  UNL1        0.0000
     24 H           4.4334    6.9994    2.1610 H       1  UNL1        0.0000
     25 H           3.7338   -2.2796    6.1305 H       1  UNL1        0.0000
     26 H           1.3521    9.9019    7.2704 H       1  UNL1        0.0000
     27 H          -5.9553    4.1579    9.1482 H       1  UNL1        0.0000
     28 H          10.9588    3.5176    4.3122 H       1  UNL1        0.0000
     29 H          -3.5060    2.5108    6.0229 H       1  UNL1        0.0000
     30 H          -1.1052   11.8092    4.3009 H       1  UNL1        0.0000
     31 H           0.0362    6.2325    6.5178 H       1  UNL1        0.0000
     32 H           1.4418    7.0007    5.8096 H       1  UNL1        0.0000
     33 H           1.6428   12.8452    2.5806 H       1  UNL1        0.0000
     34 H           7.9236   -0.7310    3.3716 H       1  UNL1        0.0000
     35 H           7.5431   -0.2139    9.9996 H       1  UNL1        0.0000
     36 H           6.2003   -1.0252   10.7782 H       1  UNL1        0.0000
     37 H          -5.9996    9.1210    6.3064 H       1  UNL1        0.0000
     38 H           8.6307    8.3816    5.5086 H       1  UNL1        0.0000
     39 H           8.1620    5.4777    8.5733 H       1  UNL1        0.0000
     40 H           7.6543    5.7379    6.9126 H       1  UNL1        0.0000
     41 H           7.1256   -4.8428    9.5610 H       1  UNL1        0.0000
     42 H           5.7894   -3.8544   10.1283 H       1  UNL1        0.0000
     43 C           8.7910    4.9588    4.6873 C.3     1  UNL1        0.0000
     44 C          -3.7564    2.7231    8.7224 C.2     1  UNL1        0.0000
     45 C           4.0098   -2.5101    8.7387 C.2     1  UNL1        0.0000
     46 C           1.0451   10.1733    4.6390 C.3     1  UNL1        0.0000
     47 C           9.6330    4.3926    5.7515 C.ar    1  UNL1        0.0000
     48 C          -4.6567    3.2925    7.6825 C.2     1  UNL1        0.0000
     49 C           4.8563   -3.1653    7.7281 C.2     1  UNL1        0.0000
     50 C           0.2036   10.7964    5.6993 C.ar    1  UNL1        0.0000
     51 C           9.3408    4.5844    7.1416 C.ar    1  UNL1        0.0000
     52 C          -4.3792    3.0879    6.3136 C.3     1  UNL1        0.0000
     53 C           5.9486   -4.0237    8.0840 C.3     1  UNL1        0.0000
     54 C          -0.8811   11.6301    5.3487 C.ar    1  UNL1        0.0000
     55 C           0.5102   10.5495    7.0332 C.ar    1  UNL1        0.0000
     56 C           4.5710   -2.9345    6.3623 C.3     1  UNL1        0.0000
     57 C          10.7718    3.6429    5.3762 C.ar    1  UNL1        0.0000
     58 C          -5.7693    4.0235    8.0844 C.3     1  UNL1        0.0000
     59 C           3.1204    4.9839    6.1156 C.ar    1  UNL1        0.0000
     60 C           1.8363    2.7967    7.3253 C.ar    1  UNL1        0.0000
     61 C           6.8887   10.3168    5.9823 C.ar    1  UNL1        0.0000
     62 C          -1.7164   -2.7355    7.4181 C.2     1  UNL1        0.0000
     63 C           8.0414    1.3973    0.0311 C.2     1  UNL1        0.0000
     64 C           1.7258   13.7341    0.0837 C.2     1  UNL1        0.0000
     65 C           6.9685   -0.6232   13.2787 C.ar    1  UNL1        0.0000
     66 C          -6.6298    0.8238   13.3538 C.2     1  UNL1        0.0000
     67 C           3.8338    6.0643    5.4137 C.3     1  UNL1        0.0000
     68 C           1.1484    1.6479    7.9855 C.3     1  UNL1        0.0000
     69 C           6.2148    9.2731    5.2014 C.3     1  UNL1        0.0000
     70 C          -1.0702   -1.6396    8.1923 C.2     1  UNL1        0.0000
     71 C           8.0888    2.8865    0.0302 C.2     1  UNL1        0.0000
     72 C           1.7131   12.2661    0.0416 C.2     1  UNL1        0.0000
     73 C           5.6827   -1.3375   13.3139 C.3     1  UNL1        0.0000
     74 C          -5.3344    1.5647   13.3799 C.2     1  UNL1        0.0000
     75 C           1.7528    5.1070    6.5247 C.ar    1  UNL1        0.0000
     76 C           3.1906    2.6840    6.9438 C.ar    1  UNL1        0.0000
     77 C           6.1660   11.4879    6.3074 C.ar    1  UNL1        0.0000
     78 C          -0.9779   -3.8734    7.1130 C.3     1  UNL1        0.0000
     79 C           7.9618    0.7334    1.2500 C.3     1  UNL1        0.0000
     80 C          -2.9303    6.9746   12.2726 C.ar    1  UNL1        0.0000
     81 C          12.2896    7.2248    1.0955 C.2     1  UNL1        0.0000
     82 C          -7.1770    0.4594   12.1288 C.3     1  UNL1        0.0000
     83 C          -7.7500   10.1899    6.3973 C.2     1  UNL1        0.0000
     84 C          12.9392   -2.6155    7.0193 C.3     1  UNL1        0.0000
     85 C           3.8056    3.7683    6.3447 C.ar    1  UNL1        0.0000
     86 C           1.1366    3.9813    7.1206 C.ar    1  UNL1        0.0000
     87 C           7.6199   -0.2741   12.0508 C.ar    1  UNL1        0.0000
     88 C          -2.5296    7.9348    1.1513 C.3     2  UNL2        0.0000
     89 C           3.3217   -6.7842   12.2271 C.3     1  UNL1        0.0000
     90 C           7.8905   -0.6776    1.3173 C.2     1  UNL1        0.0000
     91 N           1.0402    6.2691    6.3947 N.pl3   1  UNL1        0.0000
     92 N           7.7675   -1.2806    2.5366 N.2     1  UNL1        0.0000
     93 N           7.1452   -0.6480   10.8228 N.pl3   1  UNL1        0.0000
     94 N          -6.9997    9.0711    6.1587 N.2     1  UNL1        0.0000
     95 N           8.2390    5.2535    7.5898 N.pl3   1  UNL1        0.0000
     96 N           6.2705   -4.3358    9.3726 N.3     1  UNL1        0.0000
     97 O           7.7706    5.6777    5.0170 O.3     1  UNL1        0.0000
     98 O          -2.8098    1.9487    8.3466 O.2     1  UNL1        0.0000
     99 O           4.2921   -2.6891    9.9884 O.2     1  UNL1        0.0000
    100 O           0.7053   10.3370    3.4189 O.3     1  UNL1        0.0000
    101 O           2.0740    9.4983    5.0133 O.3     1  UNL1        0.0000
    102 O           3.0293   -1.7738    8.3588 O.2     1  UNL1        0.0000
    103 O           9.1002    4.7268    3.4595 O.3     1  UNL1        0.0000
    104 O          -3.9789    3.0419    9.9460 O.2     1  UNL1        0.0000
    105 O           6.4223    5.0365    2.6784 O.3     1  UNL1        0.0000
    106 O          -1.3230    2.6148   10.6216 O.3     1  UNL1        0.0000
    107 O           7.8268    7.0585    2.5970 O.3     1  UNL1        0.0000
    108 O          -2.8022    0.6609   10.8207 O.3     1  UNL1        0.0000
    109 O           1.6495   -2.5045   10.6223 O.3     1  UNL1        0.0000
    110 O           3.3473   10.2137    2.7143 O.3     1  UNL1        0.0000
    111 O           2.8790   -0.3876   10.8618 O.3     1  UNL1        0.0000
    112 O           2.1985    8.0408    2.5698 O.3     1  UNL1        0.0000
    113 O           5.0763    5.8805    5.1160 O.3     1  UNL1        0.0000
    114 O          -0.1102    1.7231    8.1810 O.3     1  UNL1        0.0000
    115 O           6.8460    8.2153    4.8735 O.3     1  UNL1        0.0000
    116 O          -1.7996   -0.6690    8.5822 O.2     1  UNL1        0.0000
    117 O           3.3245   -3.9785   12.3094 O.2     1  UNL1        0.0000
    118 O           1.6287   11.6014    1.1320 O.2     1  UNL1        0.0000
    119 O           5.1097   -1.6482   12.2092 O.3     1  UNL1        0.0000
    120 O          -0.0544    9.1999    1.1181 O.3     1  UNL1        0.0000
    121 O           4.9824    9.4632    4.8554 O.3     1  UNL1        0.0000
    122 O           0.1792   -1.7283    8.4354 O.2     1  UNL1        0.0000
    123 O           3.2049    7.1392    5.1125 O.3     1  UNL1        0.0000
    124 O           1.8750    0.6497    8.3256 O.3     1  UNL1        0.0000
    125 O           9.9077    5.8423    1.0504 O.3     1  UNL1        0.0000
    126 O          -4.8395    1.9720   12.2811 O.2     1  UNL1        0.0000
    127 O           8.1476    3.4903    1.1461 O.2     1  UNL1        0.0000
    128 O          -2.9347    4.2158   12.3101 O.3     1  UNL1        0.0000
    129 O           4.8876    7.5269    2.8426 O.3     1  UNL1        0.0000
    130 O           0.1469    0.1618   10.4993 O.3     1  UNL1        0.0000
    131 O           7.2919    5.9592    0.0162 O.3     1  UNL1        0.0000
    132 O          -2.2345    1.6924   13.3668 O.3     1  UNL1        0.0000
    133 TI         -7.6397   -5.0979   24.9489 Ti      1  UNL1        0.0000
    134 TI          3.3618   -2.0147   15.2573 Ti      1  UNL1        0.0000
    135 TI         -3.0938   -8.3989   23.0316 Ti      1  UNL1        0.0000
    136 TI         -1.2314    1.2851   17.1706 Ti      1  UNL1        0.0000
    137 TI         -2.9206    2.1615   15.2123 Ti      1  UNL1        0.0000
    138 TI         -1.6048   -9.5524   24.9940 Ti      1  UNL1        0.0000
    139 TI         -6.1997   -6.3972   23.0436 Ti      1  UNL1        0.0000
    140 TI          1.6540   -0.9732   17.1146 Ti      1  UNL1        0.0000
    141 H          -1.0184   -5.7140   20.5307 H       1  UNL1        0.0000
    142 H          -4.6786  -11.3982   20.8554 H       1  UNL1        0.0000
    143 H           0.3977    4.0834   19.3826 H       1  UNL1        0.0000
    144 H          -7.6449   -1.0780   24.7702 H       1  UNL1        0.0000
    145 H           3.2071   -6.1446   15.5786 H       1  UNL1        0.0000
    146 H         -11.3881   -6.7266   24.6290 H       1  UNL1        0.0000
    147 H           7.0294   -0.5213   15.4179 H       1  UNL1        0.0000
    148 H          -1.3583  -13.7084   24.6987 H       1  UNL1        0.0000
    149 H          -6.8166    0.7623   15.5079 H       1  UNL1        0.0000
    150 H           0.1056   -3.7546   19.4325 H       1  UNL1        0.0000
    151 H          -4.6397   -3.4264   20.8490 H       1  UNL1        0.0000
    152 H           7.6490   -9.1810   20.6849 H       1  UNL1        0.0000
    153 H          -6.7981   -6.7283   26.7017 H       1  UNL1        0.0000
    154 H           2.3237   -0.5595   13.4347 H       1  UNL1        0.0000
    155 H          -4.2157   -6.7244   24.6004 H       1  UNL1        0.0000
    156 H          -0.3029   -0.4653   15.5731 H       1  UNL1        0.0000
    157 H          -1.0024   -9.7443   19.5426 H       1  UNL1        0.0000
    158 H          -3.3841    2.4371   20.6825 H       1  UNL1        0.0000
    159 H         -10.6916   -3.3068   22.5603 H       1  UNL1        0.0000
    160 H           6.2225   -3.9471   17.7243 H       1  UNL1        0.0000
    161 H          -8.2422   -4.9539   19.4351 H       1  UNL1        0.0000
    162 H          -5.8415    4.3445   17.7130 H       1  UNL1        0.0000
    163 H          -4.7001   -1.2322   19.9299 H       1  UNL1        0.0000
    164 H          -3.2945   -0.4640   19.2218 H       1  UNL1        0.0000
    165 H          -3.0935    5.3805   15.9927 H       1  UNL1        0.0000
    166 H           3.1874   -8.1958   16.7837 H       1  UNL1        0.0000
    167 H           2.8068   -7.6786   23.4117 H       1  UNL1        0.0000
    168 H           1.4640   -8.4900   24.1903 H       1  UNL1        0.0000
    169 H         -10.7359    1.6562   19.7185 H       1  UNL1        0.0000
    170 H           3.8944    0.9169   18.9207 H       1  UNL1        0.0000
    171 H           3.4257   -1.9870   21.9855 H       1  UNL1        0.0000
    172 H           2.9181   -1.7268   20.3247 H       1  UNL1        0.0000
    173 H           2.3893  -12.3075   22.9731 H       1  UNL1        0.0000
    174 H           1.0531  -11.3191   23.5404 H       1  UNL1        0.0000
    175 C           4.0547   -2.5059   18.0994 C.3     1  UNL1        0.0000
    176 C          -8.4927   -4.7417   22.1346 C.2     1  UNL1        0.0000
    177 C          -0.7264   -9.9748   22.1508 C.2     1  UNL1        0.0000
    178 C          -3.6912    2.7086   18.0511 C.3     1  UNL1        0.0000
    179 C           4.8967   -3.0722   19.1636 C.ar    1  UNL1        0.0000
    180 C          -9.3930   -4.1722   21.0946 C.2     1  UNL1        0.0000
    181 C           0.1200  -10.6300   21.1402 C.2     1  UNL1        0.0000
    182 C          -4.5326    3.3317   19.1114 C.ar    1  UNL1        0.0000
    183 C           4.6046   -2.8804   20.5537 C.ar    1  UNL1        0.0000
    184 C          -9.1154   -4.3768   19.7257 C.3     1  UNL1        0.0000
    185 C           1.2123  -11.4884   21.4961 C.3     1  UNL1        0.0000
    186 C          -5.6173    4.1654   18.7608 C.ar    1  UNL1        0.0000
    187 C          -4.2260    3.0848   20.4453 C.ar    1  UNL1        0.0000
    188 C          -0.1653  -10.3992   19.7744 C.3     1  UNL1        0.0000
    189 C           6.0355   -3.8218   18.7883 C.ar    1  UNL1        0.0000
    190 C         -10.5056   -3.4412   21.4965 C.3     1  UNL1        0.0000
    191 C          -1.6159   -2.4809   19.5277 C.ar    1  UNL1        0.0000
    192 C          -2.9000   -4.6680   20.7374 C.ar    1  UNL1        0.0000
    193 C           2.1524    2.8520   19.3944 C.ar    1  UNL1        0.0000
    194 C          -6.4527  -10.2002   20.8302 C.2     1  UNL1        0.0000
    195 C           3.3051   -6.0674   13.4432 C.2     1  UNL1        0.0000
    196 C          -3.0104    6.2694   13.4958 C.ar    1  UNL1        0.0000
    197 C           2.2323   -8.0879   26.6908 C.ar    1  UNL1        0.0000
    198 C         -11.3661   -6.6410   26.7659 C.2     1  UNL1        0.0000
    199 C          -0.9024   -1.4004   18.8258 C.3     1  UNL1        0.0000
    200 C          -3.5879   -5.8168   21.3976 C.3     1  UNL1        0.0000
    201 C           1.4785    1.8084   18.6135 C.3     1  UNL1        0.0000
    202 C          -5.8064   -9.1043   21.6044 C.2     1  UNL1        0.0000
    203 C           3.3526   -4.5783   13.4423 C.2     1  UNL1        0.0000
    204 C          -3.0231    4.8014   13.4537 C.3     1  UNL1        0.0000
    205 C           0.9464   -8.8022   26.7260 C.3     1  UNL1        0.0000
    206 C         -10.0707   -5.9000   26.7920 C.2     1  UNL1        0.0000
    207 C          -2.9835   -2.3577   19.9368 C.ar    1  UNL1        0.0000
    208 C          -1.5456   -4.7808   20.3559 C.ar    1  UNL1        0.0000
    209 C           1.4297    4.0232   19.7195 C.ar    1  UNL1        0.0000
    210 C          -5.7141  -11.3381   20.5252 C.3     1  UNL1        0.0000
    211 C           3.2256   -6.7313   14.6622 C.3     1  UNL1        0.0000
    212 C          -7.6666   -0.4901   25.6847 C.ar    1  UNL1        0.0000
    213 C           7.5533   -0.2399   14.5077 C.ar    1  UNL1        0.0000
    214 C         -11.9133   -7.0053   25.5409 C.3     1  UNL1        0.0000
    215 C         -12.4862    2.7252   19.8094 C.2     1  UNL1        0.0000
    216 C           8.2030  -10.0802   20.4314 C.3     1  UNL1        0.0000
    217 C          -0.9307   -3.6964   19.7569 C.ar    1  UNL1        0.0000
    218 C          -3.5996   -3.4834   20.5328 C.ar    1  UNL1        0.0000
    219 C           2.8836   -7.7388   25.4629 C.ar    1  UNL1        0.0000
    220 C          -7.2659    0.4700   14.5634 C.3     1  UNL1        0.0000
    221 C          -1.4145  -14.2489   25.6392 C.3     1  UNL1        0.0000
    222 C           3.1542   -8.1423   14.7294 C.2     1  UNL1        0.0000
    223 N          -3.6960   -1.1956   19.8068 N.pl3   1  UNL1        0.0000
    224 N           3.0312   -8.7453   15.9488 N.2     1  UNL1        0.0000
    225 N           2.4089   -8.1127   24.2349 N.pl3   1  UNL1        0.0000
    226 N         -11.7360    1.6064   19.5708 N.2     1  UNL1        0.0000
    227 N           3.5028   -2.2113   21.0019 N.pl3   1  UNL1        0.0000
    228 N           1.5342  -11.8005   22.7848 N.3     1  UNL1        0.0000
    229 O           3.0343   -1.7870   18.4291 O.3     1  UNL1        0.0000
    230 O          -7.5461   -5.5161   21.7587 O.2     1  UNL1        0.0000
    231 O          -0.4442  -10.1538   23.4005 O.2     1  UNL1        0.0000
    232 O          -4.0309    2.8722   16.8310 O.3     1  UNL1        0.0000
    233 O          -2.6623    2.0336   18.4254 O.3     1  UNL1        0.0000
    234 O          -1.7069   -9.2386   21.7709 O.2     1  UNL1        0.0000
    235 O           4.3639   -2.7379   16.8716 O.3     1  UNL1        0.0000
    236 O          -8.7152   -4.4228   23.3581 O.2     1  UNL1        0.0000
    237 O           1.6861   -2.4282   16.0905 O.3     1  UNL1        0.0000
    238 O          -6.0592   -4.8499   24.0337 O.3     1  UNL1        0.0000
    239 O           3.0905   -0.4063   16.0091 O.3     1  UNL1        0.0000
    240 O          -7.5385   -6.8039   24.2328 O.3     1  UNL1        0.0000
    241 O          -3.0868   -9.9692   24.0344 O.3     1  UNL1        0.0000
    242 O          -1.3889    2.7490   16.1265 O.3     1  UNL1        0.0000
    243 O          -1.8573   -7.8523   24.2739 O.3     1  UNL1        0.0000
    244 O          -2.5378    0.5761   15.9819 O.3     1  UNL1        0.0000
    245 O           0.3400   -1.5842   18.5281 O.3     1  UNL1        0.0000
    246 O          -4.8464   -5.7416   21.5931 O.3     1  UNL1        0.0000
    247 O           2.1097    0.7506   18.2856 O.3     1  UNL1        0.0000
    248 O          -6.5359   -8.1337   21.9943 O.2     1  UNL1        0.0000
    249 O          -1.4118  -11.4432   25.7215 O.2     1  UNL1        0.0000
    250 O          -3.1076    4.1366   14.5441 O.3     1  UNL1        0.0000
    251 O           0.3734   -9.1129   25.6213 O.3     1  UNL1        0.0000
    252 O          -4.7907    1.7352   14.5302 O.2     1  UNL1        0.0000
    253 O           0.2461    1.9984   18.2675 O.3     1  UNL1        0.0000
    254 O          -4.5571   -9.1930   21.8475 O.2     1  UNL1        0.0000
    255 O          -1.5314   -0.3255   18.5246 O.3     1  UNL1        0.0000
    256 O          -2.8612   -6.8151   21.7377 O.3     1  UNL1        0.0000
    257 O           5.1715   -1.6224   14.4625 O.3     1  UNL1        0.0000
    258 O          -9.5757   -5.4928   25.6933 O.2     1  UNL1        0.0000
    259 O           3.4113   -3.9745   14.5582 O.2     1  UNL1        0.0000
    260 O          -7.6710   -3.2489   25.7222 O.3     1  UNL1        0.0000
    261 O           0.1514    0.0622   16.2548 O.3     1  UNL1        0.0000
    262 O          -4.5894   -7.3029   23.9114 O.3     1  UNL1        0.0000
    263 O           2.5556   -1.5055   13.4283 O.3     1  UNL1        0.0000
    264 O          -6.9707   -5.7723   26.7789 O.3     1  UNL1        0.0000
    265 TI        -12.3759  -12.5626   38.3610 Ti      1  UNL1        0.0000
    266 TI         -1.3744   -9.4794   28.6694 Ti      1  UNL1        0.0000
    267 TI         -7.8300  -15.8636   36.4437 Ti      1  UNL1        0.0000
    268 TI         -5.9677   -6.1797   30.5827 Ti      1  UNL1        0.0000
    269 TI         -7.6569   -5.3032   28.6244 Ti      1  UNL1        0.0000
    270 TI         -6.3410  -17.0171   38.4061 Ti      1  UNL1        0.0000
    271 TI        -10.9359  -13.8619   36.4557 Ti      1  UNL1        0.0000
    272 TI         -3.0823   -8.4379   30.5267 Ti      1  UNL1        0.0000
    273 H          -5.7546  -13.1787   33.9428 H       1  UNL1        0.0000
    274 H          -9.4148  -18.8629   34.2675 H       1  UNL1        0.0000
    275 H          -4.3386   -3.3813   32.7947 H       1  UNL1        0.0000
    276 H         -12.3812   -8.5428   38.1823 H       3  UNL3        0.0000
    277 H          -1.5292  -13.6094   28.9907 H       1  UNL1        0.0000
    278 H         -16.1244  -14.1913   38.0411 H       1  UNL1        0.0000
    279 H           2.2931   -7.9861   28.8300 H       1  UNL1        0.0000
    280 H          -6.0946  -21.1731   38.1108 H       4  UNL4        0.0000
    281 H         -11.5529   -6.7025   28.9200 H       1  UNL1        0.0000
    282 H          -4.6306  -11.2193   32.8446 H       1  UNL1        0.0000
    283 H          -9.3760  -10.8911   34.2611 H       1  UNL1        0.0000
    284 H           2.9127  -16.6457   34.0970 H       1  UNL1        0.0000
    285 H         -11.5343  -14.1931   40.1138 H       1  UNL1        0.0000
    286 H          -2.4125   -8.0242   26.8468 H       1  UNL1        0.0000
    287 H          -8.9520  -14.1892   38.0125 H       1  UNL1        0.0000
    288 H          -5.0391   -7.9301   28.9852 H       1  UNL1        0.0000
    289 H          -5.7387  -17.2090   32.9548 H       1  UNL1        0.0000
    290 H          -8.1204   -5.0276   34.0946 H       1  UNL1        0.0000
    291 H         -15.4278  -10.7715   35.9724 H       1  UNL1        0.0000
    292 H           1.4862  -11.4118   31.1364 H       1  UNL1        0.0000
    293 H         -12.9785  -12.4186   32.8472 H       1  UNL1        0.0000
    294 H         -10.5777   -3.1203   31.1251 H       1  UNL1        0.0000
    295 H          -9.4363   -8.6969   33.3420 H       1  UNL1        0.0000
    296 H          -8.0307   -7.9288   32.6339 H       1  UNL1        0.0000
    297 H          -7.8297   -2.0842   29.4048 H       1  UNL1        0.0000
    298 H          -1.5489  -15.6605   30.1958 H       1  UNL1        0.0000
    299 H          -1.9294  -15.1433   36.8238 H       1  UNL1        0.0000
    300 H          -3.2722  -15.9547   37.6024 H       1  UNL1        0.0000
    301 H         -15.4721   -5.8085   33.1306 H       1  UNL1        0.0000
    302 H          -0.8418   -6.5478   32.3328 H       1  UNL1        0.0000
    303 H          -1.3105   -9.4517   35.3976 H       1  UNL1        0.0000
    304 H          -1.8182   -9.1916   33.7368 H       1  UNL1        0.0000
    305 H          -2.3469  -19.7722   36.3852 H       1  UNL1        0.0000
    306 H          -3.6831  -18.7838   36.9525 H       1  UNL1        0.0000
    307 C          -0.6816   -9.9707   31.5115 C.3     1  UNL1        0.0000
    308 C         -13.2289  -12.2064   35.5467 C.2     1  UNL1        0.0000
    309 C          -5.4627  -17.4395   35.5629 C.2     1  UNL1        0.0000
    310 C          -8.4274   -4.7561   31.4632 C.3     1  UNL1        0.0000
    311 C           0.1604  -10.5369   32.5757 C.ar    1  UNL1        0.0000
    312 C         -14.1292  -11.6370   34.5067 C.2     1  UNL1        0.0000
    313 C          -4.6162  -18.0947   34.5524 C.2     1  UNL1        0.0000
    314 C          -9.2689   -4.1330   32.5235 C.ar    1  UNL1        0.0000
    315 C          -0.1317  -10.3451   33.9658 C.ar    1  UNL1        0.0000
    316 C         -13.8517  -11.8416   33.1378 C.3     1  UNL1        0.0000
    317 C          -3.5239  -18.9532   34.9082 C.3     1  UNL1        0.0000
    318 C         -10.3536   -3.2994   32.1729 C.ar    1  UNL1        0.0000
    319 C          -8.9623   -4.3799   33.8574 C.ar    1  UNL1        0.0000
    320 C          -4.9015  -17.8640   33.1865 C.3     1  UNL1        0.0000
    321 C           1.2992  -11.2866   32.2004 C.ar    1  UNL1        0.0000
    322 C         -15.2419  -10.9059   34.9086 C.3     1  UNL1        0.0000
    323 C          -6.3521   -9.9456   32.9398 C.ar    1  UNL1        0.0000
    324 C          -7.6362  -12.1327   34.1495 C.ar    1  UNL1        0.0000
    325 C          -2.5838   -4.6127   32.8065 C.ar    1  UNL1        0.0000
    326 C         -11.1890  -17.6650   34.2423 C.2     1  UNL1        0.0000
    327 C          -1.4312  -13.5322   26.8553 C.2     1  UNL1        0.0000
    328 C          -7.7467   -1.1953   26.9079 C.ar    1  UNL1        0.0000
    329 C          -2.5040  -15.5526   40.1030 C.2     1  UNL1        0.0000
    330 C         -16.1023  -14.1057   40.1780 C.2     1  UNL1        0.0000
    331 C          -5.6387   -8.8652   32.2379 C.3     1  UNL1        0.0000
    332 C          -8.3241  -13.2815   34.8097 C.3     1  UNL1        0.0000
    333 C          -3.2578   -5.6563   32.0256 C.3     1  UNL1        0.0000
    334 C         -10.5427  -16.5691   35.0165 C.2     1  UNL1        0.0000
    335 C          -1.3837  -12.0430   26.8544 C.2     1  UNL1        0.0000
    336 C          -7.7594   -2.6633   26.8658 C.3     1  UNL1        0.0000
    337 C          -3.7899  -16.2669   40.1381 C.2     1  UNL1        0.0000
    338 C         -14.8069  -13.3648   40.2041 C.2     1  UNL1        0.0000
    339 C          -7.7197   -9.8224   33.3489 C.ar    1  UNL1        0.0000
    340 C          -6.2819  -12.2455   33.7680 C.ar    1  UNL1        0.0000
    341 C          -3.3066   -3.4416   33.1317 C.ar    1  UNL1        0.0000
    342 C         -10.4504  -18.8028   33.9373 C.3     1  UNL1        0.0000
    343 C          -1.5107  -14.1961   28.0743 C.3     1  UNL1        0.0000
    344 C         -12.4028   -7.9548   39.0968 C.2     3  UNL3        0.0000
    345 C           2.8171   -7.7046   27.9198 C.ar    1  UNL1        0.0000
    346 C         -16.6495  -14.4700   38.9530 C.3     1  UNL1        0.0000
    347 C         -17.2225   -4.7395   33.2215 C.2     1  UNL1        0.0000
    348 C           3.4667  -17.5450   33.8435 C.3     1  UNL1        0.0000
    349 C          -5.6669  -11.1611   33.1690 C.ar    1  UNL1        0.0000
    350 C          -8.3359  -10.9482   33.9449 C.ar    1  UNL1        0.0000
    351 C          -1.8526  -15.2035   38.8750 C.2     1  UNL1        0.0000
    352 C         -12.0021   -6.9947   27.9755 C.3     1  UNL1        0.0000
    353 C          -6.1508  -21.7136   39.0513 C.3     3  UNL3        0.0000
    354 C          -1.5821  -15.6071   28.1415 C.2     1  UNL1        0.0000
    355 N          -8.4323   -8.6603   33.2189 N.pl3   1  UNL1        0.0000
    356 N          -1.7051  -16.2101   29.3609 N.2     1  UNL1        0.0000
    357 N          -2.3273  -15.5774   37.6471 N.pl3   1  UNL1        0.0000
    358 N         -16.4723   -5.8583   32.9830 N.2     1  UNL1        0.0000
    359 N          -1.2335   -9.6760   34.4140 N.pl3   1  UNL1        0.0000
    360 N          -3.2020  -19.2653   36.1969 N.3     1  UNL1        0.0000
    361 O          -1.7019   -9.2517   31.8413 O.3     1  UNL1        0.0000
    362 O         -12.2824  -12.9808   35.1708 O.2     1  UNL1        0.0000
    363 O          -5.1804  -17.6185   36.8126 O.2     1  UNL1        0.0000
    364 O          -8.7672   -4.5925   30.2431 O.3     1  UNL1        0.0000
    365 O          -7.3985   -5.4311   31.8375 O.3     1  UNL1        0.0000
    366 O          -6.4432  -16.7033   35.1830 O.2     1  UNL1        0.0000
    367 O          -0.3723  -10.2026   30.2837 O.3     1  UNL1        0.0000
    368 O         -13.4515  -11.8875   36.7702 O.2     1  UNL1        0.0000
    369 O          -3.0502   -9.8929   29.5026 O.3     1  UNL1        0.0000
    370 O         -10.7955  -12.3146   37.4458 O.3     1  UNL1        0.0000
    371 O          -1.6457   -7.8710   29.4212 O.3     1  UNL1        0.0000
    372 O         -12.2747  -14.2686   37.6449 O.3     1  UNL1        0.0000
    373 O          -7.8230  -17.4340   37.4465 O.3     1  UNL1        0.0000
    374 O          -6.1252   -4.7158   29.5386 O.3     1  UNL1        0.0000
    375 O          -6.5935  -15.3170   37.6860 O.3     1  UNL1        0.0000
    376 O          -7.2740   -6.8887   29.3940 O.3     1  UNL1        0.0000
    377 O          -4.3963   -9.0489   31.9402 O.3     1  UNL1        0.0000
    378 O          -9.5827  -13.2064   35.0052 O.3     1  UNL1        0.0000
    379 O          -2.6266   -6.7142   31.6977 O.3     1  UNL1        0.0000
    380 O         -11.2721  -15.5984   35.4064 O.2     1  UNL1        0.0000
    381 O          -6.1481  -18.9079   39.1336 O.3     1  UNL1        0.0000
    382 O          -7.8439   -3.3281   27.9563 O.3     1  UNL1        0.0000
    383 O          -4.3629  -16.5776   39.0334 O.2     1  UNL1        0.0000
    384 O          -9.5270   -5.7296   27.9423 O.2     1  UNL1        0.0000
    385 O          -4.4902   -5.4663   31.6796 O.3     1  UNL1        0.0000
    386 O          -9.2934  -16.6577   35.2596 O.2     1  UNL1        0.0000
    387 O          -6.2676   -7.7903   31.9367 O.3     1  UNL1        0.0000
    388 O          -7.5975  -14.2798   35.1498 O.3     1  UNL1        0.0000
    389 O           0.4352   -9.0871   27.8746 O.3     1  UNL1        0.0000
    390 O         -14.3120  -12.9575   39.1054 O.2     1  UNL1        0.0000
    391 O          -1.3249  -11.4392   27.9703 O.2     1  UNL1        0.0000
    392 O         -12.4073  -10.7137   39.1343 O.3     1  UNL1        0.0000
    393 O          -4.5849   -7.4025   29.6669 O.3     1  UNL1        0.0000
    394 O          -9.3256  -14.7676   37.3235 O.3     1  UNL1        0.0000
    395 O          -2.1806   -8.9702   26.8404 O.3     1  UNL1        0.0000
    396 O         -11.7070  -13.2370   40.1910 O.3     1  UNL1        0.0000
    397 TI         -9.1027   17.5069   11.5368 Ti      1  UNL1        0.0000
    398 TI          1.8988   20.5901    1.8452 Ti      1  UNL1        0.0000
    399 TI         -4.5568   14.2059    9.6194 Ti      1  UNL1        0.0000
    400 TI         -2.6944   23.8898    3.7585 Ti      1  UNL1        0.0000
    401 TI         -4.3837   24.7663    1.8002 Ti      1  UNL1        0.0000
    402 TI         -3.0678   13.0524   11.5819 Ti      1  UNL1        0.0000
    403 TI         -7.6627   16.2076    9.6315 Ti      1  UNL1        0.0000
    404 TI          0.1909   21.6316    3.7025 Ti      1  UNL1        0.0000
    405 H          -2.4814   16.8908    7.1186 H       1  UNL1        0.0000
    406 H          -6.1416   11.2066    7.4433 H       1  UNL1        0.0000
    407 H          -1.0653   26.6882    5.9705 H       1  UNL1        0.0000
    408 H          -9.1079   21.5267   11.3581 H       1  UNL1        0.0000
    409 H           1.7440   16.4601    2.1665 H       1  UNL1        0.0000
    410 H         -12.8512   15.8782   11.2168 H       1  UNL1        0.0000
    411 H           5.5664   22.0834    2.0058 H       5  UNL5        0.0000
    412 H          -2.8213    8.8964   11.2866 H       1  UNL1        0.0000
    413 H          -8.2796   23.3670    2.0958 H       6  UNL6        0.0000
    414 H          -1.3574   18.8502    6.0204 H       1  UNL1        0.0000
    415 H          -6.1027   19.1784    7.4369 H       1  UNL1        0.0000
    416 H           6.1860   13.4238    7.2727 H       1  UNL1        0.0000
    417 H          -8.2611   15.8764   13.2896 H       1  UNL1        0.0000
    418 H           0.8607   22.0453    0.0226 H       1  UNL1        0.0000
    419 H          -5.6788   15.8803   11.1883 H       1  UNL1        0.0000
    420 H          -1.7659   22.1394    2.1610 H       1  UNL1        0.0000
    421 H          -2.4655   12.8605    6.1305 H       1  UNL1        0.0000
    422 H          -4.8472   25.0419    7.2704 H       1  UNL1        0.0000
    423 H         -12.1546   19.2980    9.1482 H       1  UNL1        0.0000
    424 H           4.7595   18.6577    4.3122 H       1  UNL1        0.0000
    425 H          -9.7053   17.6509    6.0229 H       1  UNL1        0.0000
    426 H          -7.3045   26.9492    4.3009 H       1  UNL1        0.0000
    427 H          -6.1631   21.3726    6.5178 H       1  UNL1        0.0000
    428 H          -4.7575   22.1407    5.8096 H       1  UNL1        0.0000
    429 H          -4.5565   27.9853    2.5806 H       1  UNL1        0.0000
    430 H           1.7243   14.4090    3.3716 H       1  UNL1        0.0000
    431 H           1.3438   14.9262    9.9996 H       1  UNL1        0.0000
    432 H           0.0010   14.1148   10.7782 H       1  UNL1        0.0000
    433 H         -12.1989   24.2610    6.3064 H       1  UNL1        0.0000
    434 H           2.4314   23.5217    5.5086 H       1  UNL1        0.0000
    435 H           1.9627   20.6178    8.5733 H       1  UNL1        0.0000
    436 H           1.4550   20.8779    6.9126 H       1  UNL1        0.0000
    437 H           0.9263   10.2973    9.5610 H       1  UNL1        0.0000
    438 H          -0.4099   11.2857   10.1283 H       1  UNL1        0.0000
    439 C           2.5917   20.0988    4.6873 C.3     1  UNL1        0.0000
    440 C          -9.9557   17.8631    8.7224 C.2     1  UNL1        0.0000
    441 C          -2.1895   12.6300    8.7387 C.3     1  UNL1        0.0000
    442 C          -5.1542   25.3134    4.6390 C.3     1  UNL1        0.0000
    443 C           3.4337   19.5326    5.7515 C.ar    1  UNL1        0.0000
    444 C         -10.8560   18.4325    7.6825 C.2     1  UNL1        0.0000
    445 C          -1.3430   11.9748    7.7281 C.ar    1  UNL1        0.0000
    446 C          -5.9957   25.9365    5.6993 C.ar    1  UNL1        0.0000
    447 C           3.1416   19.7244    7.1416 C.ar    1  UNL1        0.0000
    448 C         -10.5785   18.2279    6.3136 C.3     1  UNL1        0.0000
    449 C          -0.2507   11.1163    8.0840 C.ar    1  UNL1        0.0000
    450 C          -7.0803   26.7701    5.3487 C.ar    1  UNL1        0.0000
    451 C          -5.6891   25.6896    7.0332 C.ar    1  UNL1        0.0000
    452 C          -1.6283   12.2055    6.3623 C.ar    1  UNL1        0.0000
    453 C           4.5725   18.7829    5.3762 C.ar    1  UNL1        0.0000
    454 C         -11.9686   19.1636    8.0844 C.3     1  UNL1        0.0000
    455 C          -3.0789   20.1239    6.1156 C.ar    1  UNL1        0.0000
    456 C          -4.3630   17.9368    7.3253 C.ar    1  UNL1        0.0000
    457 C           0.6894   25.4568    5.9823 C.ar    1  UNL1        0.0000
    458 C          -7.9157   12.4045    7.4181 C.2     1  UNL1        0.0000
    459 C           1.8421   16.5373    0.0311 C.2     1  UNL1        0.0000
    460 C          -4.4735   28.8742    0.0837 C.2     1  UNL1        0.0000
    461 C           0.7692   14.5169   13.2787 C.ar    1  UNL1        0.0000
    462 C         -12.8291   15.9638   13.3538 C.2     1  UNL1        0.0000
    463 C          -2.3654   21.2043    5.4137 C.3     1  UNL1        0.0000
    464 C          -5.0509   16.7880    7.9855 C.3     1  UNL1        0.0000
    465 C           0.0155   24.4132    5.2014 C.3     1  UNL1        0.0000
    466 C          -7.2695   13.5004    8.1923 C.2     1  UNL1        0.0000
    467 C           1.8896   18.0265    0.0302 C.2     1  UNL1        0.0000
    468 C          -4.4861   27.4062    0.0416 C.2     1  UNL1        0.0000
    469 C          -0.5166   13.8026   13.3139 C.3     1  UNL1        0.0000
    470 C         -11.5337   16.7047   13.3799 C.2     1  UNL1        0.0000
    471 C          -4.4465   20.2471    6.5247 C.ar    1  UNL1        0.0000
    472 C          -3.0087   17.8240    6.9438 C.ar    1  UNL1        0.0000
    473 C          -0.0333   26.6279    6.3074 C.ar    1  UNL1        0.0000
    474 C          -7.1771   11.2667    7.1130 C.3     1  UNL1        0.0000
    475 C           1.7625   15.8734    1.2500 C.2     1  UNL1        0.0000
    476 C          -9.1296   22.1147   12.2726 C.ar    1  UNL1        0.0000
    477 C           6.0903   22.3649    1.0955 C.2     5  UNL5        0.0000
    478 C         -13.3763   15.5995   12.1288 C.3     1  UNL1        0.0000
    479 C         -13.9493   25.3300    6.3973 C.2     1  UNL1        0.0000
    480 C           6.7399   12.5245    7.0193 C.ar    1  UNL1        0.0000
    481 C          -2.3937   18.9084    6.3447 C.ar    1  UNL1        0.0000
    482 C          -5.0627   19.1213    7.1206 C.ar    1  UNL1        0.0000
    483 C           1.4206   14.8660   12.0508 C.ar    1  UNL1        0.0000
    484 C          -8.7289   23.0748    1.1513 C.3     4  UNL4        0.0000
    485 C          -2.8775    8.3559   12.2271 C.ar    1  UNL1        0.0000
    486 C           1.6912   14.4624    1.3173 C.2     1  UNL1        0.0000
    487 N          -5.1591   21.4092    6.3947 N.pl3   1  UNL1        0.0000
    488 N           1.5682   13.8594    2.5366 N.pl3   1  UNL1        0.0000
    489 N           0.9459   14.4921   10.8228 N.pl3   1  UNL1        0.0000
    490 N         -13.1990   24.2112    6.1587 N.2     1  UNL1        0.0000
    491 N           2.0398   20.3935    7.5898 N.pl3   1  UNL1        0.0000
    492 N           0.0712   10.8042    9.3726 N.pl3   1  UNL1        0.0000
    493 O           1.5713   20.8178    5.0170 O.3     1  UNL1        0.0000
    494 O          -9.0091   17.0887    8.3466 O.2     1  UNL1        0.0000
    495 O          -1.9072   12.4510    9.9884 O.3     1  UNL1        0.0000
    496 O          -5.4940   25.4770    3.4189 O.3     1  UNL1        0.0000
    497 O          -4.1253   24.6384    5.0133 O.3     1  UNL1        0.0000
    498 O          -3.1699   13.3662    8.3588 O.3     1  UNL1        0.0000
    499 O           2.9009   19.8669    3.4595 O.3     1  UNL1        0.0000
    500 O         -10.1782   18.1820    9.9460 O.2     1  UNL1        0.0000
    501 O           0.2231   20.1766    2.6784 O.3     1  UNL1        0.0000
    502 O          -7.5223   17.7549   10.6216 O.3     1  UNL1        0.0000
    503 O           1.6275   22.1985    2.5970 O.3     1  UNL1        0.0000
    504 O          -9.0015   15.8009   10.8207 O.3     1  UNL1        0.0000
    505 O          -4.5498   12.6355   10.6223 O.3     1  UNL1        0.0000
    506 O          -2.8520   25.3537    2.7143 O.3     1  UNL1        0.0000
    507 O          -3.3203   14.7525   10.8618 O.3     1  UNL1        0.0000
    508 O          -4.0008   23.1808    2.5698 O.3     1  UNL1        0.0000
    509 O          -1.1230   21.0206    5.1160 O.3     1  UNL1        0.0000
    510 O          -6.3095   16.8631    8.1810 O.3     1  UNL1        0.0000
    511 O           0.6467   23.3553    4.8735 O.3     1  UNL1        0.0000
    512 O          -7.9989   14.4711    8.5822 O.2     1  UNL1        0.0000
    513 O          -2.8748   11.1615   12.3094 O.3     1  UNL1        0.0000
    514 O          -4.5706   26.7414    1.1320 O.2     1  UNL1        0.0000
    515 O          -1.0896   13.4919   12.2092 O.3     1  UNL1        0.0000
    516 O          -6.2537   24.3399    1.1181 O.3     1  UNL1        0.0000
    517 O          -1.2169   24.6032    4.8554 O.3     1  UNL1        0.0000
    518 O          -6.0201   13.4118    8.4354 O.2     1  UNL1        0.0000
    519 O          -2.9944   22.2792    5.1125 O.3     1  UNL1        0.0000
    520 O          -4.3243   15.7897    8.3256 O.3     1  UNL1        0.0000
    521 O           3.7085   20.9824    1.0504 O.3     1  UNL1        0.0000
    522 O         -11.0387   17.1120   12.2811 O.2     1  UNL1        0.0000
    523 O           1.9483   18.6303    1.1461 O.2     1  UNL1        0.0000
    524 O          -9.1340   19.3558   12.3101 O.3     1  UNL1        0.0000
    525 O          -1.3117   22.6670    2.8426 O.3     1  UNL1        0.0000
    526 O          -6.0524   15.3019   10.4993 O.3     1  UNL1        0.0000
    527 O           1.0926   21.0993    0.0162 O.3     1  UNL1        0.0000
    528 O          -8.4338   16.8325   13.3668 O.3     1  UNL1        0.0000
    529 TI        -13.8390   10.0422   24.9489 Ti      1  UNL1        0.0000
    530 TI         -2.8374   13.1253   15.2573 Ti      1  UNL1        0.0000
    531 TI         -9.2931    6.7412   23.0316 Ti      1  UNL1        0.0000
    532 TI         -7.4307   16.4251   17.1706 Ti      1  UNL1        0.0000
    533 TI         -9.1199   17.3015   15.2123 Ti      1  UNL1        0.0000
    534 TI         -7.8040    5.5877   24.9940 Ti      1  UNL1        0.0000
    535 TI        -12.3990    8.7429   23.0436 Ti      1  UNL1        0.0000
    536 TI         -4.5453   14.1668   17.1146 Ti      1  UNL1        0.0000
    537 H          -7.2177    9.4261   20.5307 H       1  UNL1        0.0000
    538 H         -10.8779    3.7419   20.8554 H       1  UNL1        0.0000
    539 H          -5.8016   19.2234   19.3826 H       1  UNL1        0.0000
    540 H         -13.8442   14.0620   24.7702 H       1  UNL1        0.0000
    541 H          -2.9922    8.9954   15.5786 H       1  UNL1        0.0000
    542 H         -17.5874    8.4134   24.6290 H       1  UNL1        0.0000
    543 H           0.8301   14.6187   15.4179 H       1  UNL1        0.0000
    544 H          -7.5576    1.4317   24.6987 H       1  UNL1        0.0000
    545 H         -13.0159   15.9023   15.5079 H       1  UNL1        0.0000
    546 H          -6.0937   11.3855   19.4325 H       1  UNL1        0.0000
    547 H         -10.8390   11.7137   20.8490 H       1  UNL1        0.0000
    548 H           1.4497    5.9591   20.6849 H       1  UNL1        0.0000
    549 H         -12.9974    8.4117   26.7017 H       1  UNL1        0.0000
    550 H          -3.8756   14.5806   13.4347 H       1  UNL1        0.0000
    551 H         -10.4150    8.4156   24.6004 H       1  UNL1        0.0000
    552 H          -6.5022   14.6747   15.5731 H       1  UNL1        0.0000
    553 H          -7.2017    5.3957   19.5426 H       1  UNL1        0.0000
    554 H          -9.5834   17.5772   20.6825 H       1  UNL1        0.0000
    555 H         -16.8909   11.8333   22.5603 H       1  UNL1        0.0000
    556 H           0.0232   11.1929   17.7243 H       1  UNL1        0.0000
    557 H         -14.4415   10.1862   19.4351 H       1  UNL1        0.0000
    558 H         -12.0408   19.4845   17.7130 H       1  UNL1        0.0000
    559 H         -10.8993   13.9079   19.9299 H       1  UNL1        0.0000
    560 H          -9.4938   14.6760   19.2218 H       1  UNL1        0.0000
    561 H          -9.2928   20.5206   15.9927 H       1  UNL1        0.0000
    562 H          -3.0119    6.9443   16.7837 H       1  UNL1        0.0000
    563 H          -3.3925    7.4615   23.4117 H       1  UNL1        0.0000
    564 H          -4.7352    6.6501   24.1903 H       1  UNL1        0.0000
    565 H         -16.9352   16.7963   19.7185 H       1  UNL1        0.0000
    566 H          -2.3048   16.0569   18.9207 H       1  UNL1        0.0000
    567 H          -2.7736   13.1531   21.9855 H       1  UNL1        0.0000
    568 H          -3.2812   13.4132   20.3247 H       1  UNL1        0.0000
    569 H          -3.8100    2.8326   22.9731 H       1  UNL1        0.0000
    570 H          -5.1461    3.8209   23.5404 H       1  UNL1        0.0000
    571 C          -2.1446   12.6341   18.0994 C.3     1  UNL1        0.0000
    572 C         -14.6919   10.3984   22.1346 C.2     1  UNL1        0.0000
    573 C          -6.9257    5.1652   22.1508 C.3     1  UNL1        0.0000
    574 C          -9.8905   17.8487   18.0511 C.3     1  UNL1        0.0000
    575 C          -1.3026   12.0679   19.1636 C.ar    1  UNL1        0.0000
    576 C         -15.5923   10.9678   21.0946 C.2     1  UNL1        0.0000
    577 C          -6.0792    4.5100   21.1402 C.ar    1  UNL1        0.0000
    578 C         -10.7319   18.4717   19.1114 C.ar    1  UNL1        0.0000
    579 C          -1.5947   12.2597   20.5537 C.ar    1  UNL1        0.0000
    580 C         -15.3147   10.7632   19.7257 C.3     1  UNL1        0.0000
    581 C          -4.9869    3.6516   21.4961 C.ar    1  UNL1        0.0000
    582 C         -11.8166   19.3054   18.7608 C.ar    1  UNL1        0.0000
    583 C         -10.4253   18.2249   20.4453 C.ar    1  UNL1        0.0000
    584 C          -6.3646    4.7408   19.7744 C.ar    1  UNL1        0.0000
    585 C          -0.1638   11.3182   18.7883 C.ar    1  UNL1        0.0000
    586 C         -16.7049   11.6989   21.4965 C.3     1  UNL1        0.0000
    587 C          -7.8151   12.6592   19.5277 C.ar    1  UNL1        0.0000
    588 C          -9.0993   10.4720   20.7374 C.ar    1  UNL1        0.0000
    589 C          -4.0468   17.9921   19.3944 C.ar    1  UNL1        0.0000
    590 C         -12.6520    4.9398   20.8302 C.2     1  UNL1        0.0000
    591 C          -2.8942    9.0726   13.4432 C.ar    1  UNL1        0.0000
    592 C          -9.2097   21.4095   13.4958 C.ar    1  UNL1        0.0000
    593 C          -3.9670    7.0521   26.6908 C.ar    1  UNL1        0.0000
    594 C         -17.5654    8.4991   26.7659 C.2     1  UNL1        0.0000
    595 C          -7.1017   13.7396   18.8258 C.3     1  UNL1        0.0000
    596 C          -9.7871    9.3232   21.3976 C.3     1  UNL1        0.0000
    597 C          -4.7208   16.9484   18.6135 C.3     1  UNL1        0.0000
    598 C         -12.0057    6.0357   21.6044 C.2     1  UNL1        0.0000
    599 C          -2.8467   10.5618   13.4423 C.3     1  UNL1        0.0000
    600 C          -9.2224   19.9415   13.4537 C.3     1  UNL1        0.0000
    601 C          -5.2529    6.3378   26.7260 C.3     1  UNL1        0.0000
    602 C         -16.2700    9.2400   26.7920 C.2     1  UNL1        0.0000
    603 C          -9.1828   12.7824   19.9368 C.ar    1  UNL1        0.0000
    604 C          -7.7449   10.3593   20.3559 C.ar    1  UNL1        0.0000
    605 C          -4.7696   19.1632   19.7195 C.ar    1  UNL1        0.0000
    606 C         -11.9134    3.8019   20.5252 C.3     1  UNL1        0.0000
    607 C          -2.9737    8.4087   14.6622 C.ar    1  UNL1        0.0000
    608 C         -13.8659   14.6500   25.6847 C.ar    1  UNL1        0.0000
    609 C           1.3540   14.9001   14.5077 C.ar    1  UNL1        0.0000
    610 C         -18.1126    8.1348   25.5409 C.3     1  UNL1        0.0000
    611 C         -18.6855   17.8652   19.8094 C.2     1  UNL1        0.0000
    612 C           2.0037    5.0598   20.4314 C.ar    1  UNL1        0.0000
    613 C          -7.1300   11.4436   19.7569 C.ar    1  UNL1        0.0000
    614 C          -9.7989   11.6566   20.5328 C.ar    1  UNL1        0.0000
    615 C          -3.3156    7.4012   25.4629 C.ar    1  UNL1        0.0000
    616 C         -13.4651   15.6101   14.5634 C.3     1  UNL1        0.0000
    617 C          -7.6138    0.8912   25.6392 C.ar    1  UNL1        0.0000
    618 C          -3.0451    6.9977   14.7294 C.ar    1  UNL1        0.0000
    619 N          -9.8953   13.9445   19.8068 N.pl3   1  UNL1        0.0000
    620 N          -3.1681    6.3947   15.9488 N.pl3   1  UNL1        0.0000
    621 N          -3.7903    7.0274   24.2349 N.pl3   1  UNL1        0.0000
    622 N         -17.9353   16.7464   19.5708 N.2     1  UNL1        0.0000
    623 N          -2.6965   12.9288   21.0019 N.pl3   1  UNL1        0.0000
    624 N          -4.6651    3.3395   22.7848 N.pl3   1  UNL1        0.0000
    625 O          -3.1650   13.3531   18.4291 O.3     1  UNL1        0.0000
    626 O         -13.7454    9.6240   21.7587 O.2     1  UNL1        0.0000
    627 O          -6.6435    4.9863   23.4005 O.3     1  UNL1        0.0000
    628 O         -10.2302   18.0123   16.8310 O.3     1  UNL1        0.0000
    629 O          -8.8615   17.1736   18.4254 O.3     1  UNL1        0.0000
    630 O          -7.9062    5.9015   21.7709 O.3     1  UNL1        0.0000
    631 O          -1.8354   12.4022   16.8716 O.3     1  UNL1        0.0000
    632 O         -14.9145   10.7172   23.3581 O.2     1  UNL1        0.0000
    633 O          -4.5132   12.7119   16.0905 O.3     1  UNL1        0.0000
    634 O         -12.2585   10.2901   24.0337 O.3     1  UNL1        0.0000
    635 O          -3.1087   14.7338   16.0091 O.3     1  UNL1        0.0000
    636 O         -13.7377    8.3362   24.2328 O.3     1  UNL1        0.0000
    637 O          -9.2861    5.1708   24.0344 O.3     1  UNL1        0.0000
    638 O          -7.5882   17.8890   16.1265 O.3     1  UNL1        0.0000
    639 O          -8.0566    7.2878   24.2739 O.3     1  UNL1        0.0000
    640 O          -8.7371   15.7161   15.9819 O.3     1  UNL1        0.0000
    641 O          -5.8593   13.5559   18.5281 O.3     1  UNL1        0.0000
    642 O         -11.0457    9.3984   21.5931 O.3     1  UNL1        0.0000
    643 O          -4.0896   15.8906   18.2856 O.3     1  UNL1        0.0000
    644 O         -12.7352    7.0064   21.9943 O.2     1  UNL1        0.0000
    645 O          -7.6111    3.6968   25.7215 O.3     1  UNL1        0.0000
    646 O          -9.3069   19.2767   14.5441 O.3     1  UNL1        0.0000
    647 O          -5.8259    6.0272   25.6213 O.3     1  UNL1        0.0000
    648 O         -10.9900   16.8752   14.5302 O.2     1  UNL1        0.0000
    649 O          -5.9532   17.1385   18.2675 O.3     1  UNL1        0.0000
    650 O         -10.7564    5.9471   21.8475 O.2     1  UNL1        0.0000
    651 O          -7.7307   14.8145   18.5246 O.3     1  UNL1        0.0000
    652 O          -9.0605    8.3250   21.7377 O.3     1  UNL1        0.0000
    653 O          -1.0278   13.5176   14.4625 O.3     1  UNL1        0.0000
    654 O         -15.7750    9.6473   25.6933 O.2     1  UNL1        0.0000
    655 O          -2.7879   11.1656   14.5582 O.3     1  UNL1        0.0000
    656 O         -13.8703   11.8911   25.7222 O.3     1  UNL1        0.0000
    657 O          -6.0479   15.2023   16.2548 O.3     1  UNL1        0.0000
    658 O         -10.7886    7.8371   23.9114 O.3     1  UNL1        0.0000
    659 O          -3.6437   13.6346   13.4283 O.3     1  UNL1        0.0000
    660 O         -13.1700    9.3677   26.7789 O.3     1  UNL1        0.0000
    661 TI        -18.5752    2.5775   38.3610 Ti      1  UNL1        0.0000
    662 TI         -7.5737    5.6606   28.6694 Ti      1  UNL1        0.0000
    663 TI        -14.0293   -0.7235   36.4437 Ti      1  UNL1        0.0000
    664 TI        -12.1670    8.9604   30.5827 Ti      1  UNL1        0.0000
    665 TI        -13.8562    9.8368   28.6244 Ti      1  UNL1        0.0000
    666 TI        -12.5403   -1.8770   38.4061 Ti      1  UNL1        0.0000
    667 TI        -17.1352    1.2781   36.4557 Ti      1  UNL1        0.0000
    668 TI         -9.2816    6.7021   30.5267 Ti      1  UNL1        0.0000
    669 H         -11.9539    1.9614   33.9428 H       1  UNL1        0.0000
    670 H         -15.6141   -3.7228   34.2675 H       1  UNL1        0.0000
    671 H         -10.5379   11.7587   32.7947 H       1  UNL1        0.0000
    672 H         -18.5805    6.5973   38.1823 H       7  UNL7        0.0000
    673 H          -7.7285    1.5307   28.9907 H       1  UNL1        0.0000
    674 H         -22.3237    0.9487   38.0411 H       1  UNL1        0.0000
    675 H          -3.9061    7.1540   28.8300 H       1  UNL1        0.0000
    676 H         -12.2938   -6.0331   38.1108 H       3  UNL3        0.0000
    677 H         -17.7522    8.4376   28.9200 H       1  UNL1        0.0000
    678 H         -10.8299    3.9207   32.8446 H       1  UNL1        0.0000
    679 H         -15.5753    4.2490   34.2611 H       1  UNL1        0.0000
    680 H          -3.2865   -1.5057   34.0970 H       1  UNL1        0.0000
    681 H         -17.7336    0.9470   40.1138 H       1  UNL1        0.0000
    682 H          -8.6118    7.1158   26.8468 H       1  UNL1        0.0000
    683 H         -15.1513    0.9509   38.0125 H       1  UNL1        0.0000
    684 H         -11.2384    7.2100   28.9852 H       1  UNL1        0.0000
    685 H         -11.9380   -2.0690   32.9548 H       1  UNL1        0.0000
    686 H         -14.3197   10.1125   34.0946 H       1  UNL1        0.0000
    687 H         -21.6271    4.3685   35.9724 H       1  UNL1        0.0000
    688 H          -4.7130    3.7282   31.1364 H       1  UNL1        0.0000
    689 H         -19.1778    2.7214   32.8472 H       1  UNL1        0.0000
    690 H         -16.7770   12.0198   31.1251 H       1  UNL1        0.0000
    691 H         -15.6356    6.4431   33.3420 H       1  UNL1        0.0000
    692 H         -14.2300    7.2113   32.6339 H       1  UNL1        0.0000
    693 H         -14.0290   13.0558   29.4048 H       1  UNL1        0.0000
    694 H          -7.7482   -0.5204   30.1958 H       1  UNL1        0.0000
    695 H          -8.1287   -0.0033   36.8238 H       1  UNL1        0.0000
    696 H          -9.4715   -0.8146   37.6024 H       1  UNL1        0.0000
    697 H         -21.6714    9.3316   33.1306 H       1  UNL1        0.0000
    698 H          -7.0411    8.5922   32.3328 H       1  UNL1        0.0000
    699 H          -7.5098    5.6883   35.3976 H       1  UNL1        0.0000
    700 H          -8.0175    5.9485   33.7368 H       1  UNL1        0.0000
    701 H          -8.5462   -4.6322   36.3852 H       1  UNL1        0.0000
    702 H          -9.8824   -3.6438   36.9525 H       1  UNL1        0.0000
    703 C          -6.8808    5.1694   31.5115 C.3     1  UNL1        0.0000
    704 C         -19.4282    2.9337   35.5467 C.2     1  UNL1        0.0000
    705 C         -11.6620   -2.2995   35.5629 C.3     1  UNL1        0.0000
    706 C         -14.6267   10.3839   31.4632 C.3     1  UNL1        0.0000
    707 C          -6.0389    4.6032   32.5757 C.ar    1  UNL1        0.0000
    708 C         -20.3285    3.5031   34.5067 C.2     1  UNL1        0.0000
    709 C         -10.8155   -2.9547   34.5524 C.ar    1  UNL1        0.0000
    710 C         -15.4682   11.0070   32.5235 C.ar    1  UNL1        0.0000
    711 C          -6.3310    4.7950   33.9658 C.ar    1  UNL1        0.0000
    712 C         -20.0510    3.2985   33.1378 C.3     1  UNL1        0.0000
    713 C          -9.7232   -3.8131   34.9082 C.ar    1  UNL1        0.0000
    714 C         -16.5529   11.8407   32.1729 C.ar    1  UNL1        0.0000
    715 C         -15.1616   10.7601   33.8574 C.ar    1  UNL1        0.0000
    716 C         -11.1008   -2.7239   33.1865 C.ar    1  UNL1        0.0000
    717 C          -4.9000    3.8535   32.2004 C.ar    1  UNL1        0.0000
    718 C         -21.4411    4.2341   34.9086 C.3     1  UNL1        0.0000
    719 C         -12.5514    5.1945   32.9398 C.ar    1  UNL1        0.0000
    720 C         -13.8355    3.0073   34.1495 C.ar    1  UNL1        0.0000
    721 C          -8.7831   10.5274   32.8065 C.ar    1  UNL1        0.0000
    722 C         -17.3882   -2.5249   34.2423 C.2     1  UNL1        0.0000
    723 C          -7.6305    1.6079   26.8553 C.ar    1  UNL1        0.0000
    724 C         -13.9460   13.9447   26.9079 C.ar    1  UNL1        0.0000
    725 C          -8.7033   -0.4126   40.1030 C.2     1  UNL1        0.0000
    726 C         -22.3016    1.0344   40.1780 C.2     1  UNL1        0.0000
    727 C         -11.8380    6.2749   32.2379 C.3     1  UNL1        0.0000
    728 C         -14.5234    1.8585   34.8097 C.3     1  UNL1        0.0000
    729 C          -9.4570    9.4837   32.0256 C.3     1  UNL1        0.0000
    730 C         -16.7420   -1.4290   35.0165 C.2     1  UNL1        0.0000
    731 C          -7.5830    3.0971   26.8544 C.3     1  UNL1        0.0000
    732 C         -13.9587   12.4767   26.8658 C.3     1  UNL1        0.0000
    733 C          -9.9892   -1.1269   40.1381 C.2     1  UNL1        0.0000
    734 C         -21.0062    1.7753   40.2041 C.2     1  UNL1        0.0000
    735 C         -13.9190    5.3176   33.3489 C.ar    1  UNL1        0.0000
    736 C         -12.4812    2.8946   33.7680 C.ar    1  UNL1        0.0000
    737 C          -9.5058   11.6985   33.1317 C.ar    1  UNL1        0.0000
    738 C         -16.6497   -3.6628   33.9373 C.3     1  UNL1        0.0000
    739 C          -7.7100    0.9440   28.0743 C.ar    1  UNL1        0.0000
    740 C         -18.6021    7.1852   39.0968 C.2     7  UNL7        0.0000
    741 C          -3.3822    7.4354   27.9198 C.ar    1  UNL1        0.0000
    742 C         -22.8488    0.6700   38.9530 C.3     1  UNL1        0.0000
    743 C         -23.4218   10.4005   33.2215 C.2     1  UNL1        0.0000
    744 C          -2.7326   -2.4049   33.8435 C.ar    1  UNL1        0.0000
    745 C         -11.8662    3.9789   33.1690 C.ar    1  UNL1        0.0000
    746 C         -14.5352    4.1919   33.9449 C.ar    1  UNL1        0.0000
    747 C          -8.0519   -0.0635   38.8750 C.2     1  UNL1        0.0000
    748 C         -18.2014    8.1454   27.9755 C.3     1  UNL1        0.0000
    749 C         -12.3501   -6.5736   39.0513 C.2     3  UNL3        0.0000
    750 C          -7.7813   -0.4670   28.1415 C.ar    1  UNL1        0.0000
    751 N         -14.6316    6.4797   33.2189 N.pl3   1  UNL1        0.0000
    752 N          -7.9044   -1.0700   29.3609 N.pl3   1  UNL1        0.0000
    753 N          -8.5266   -0.4374   37.6471 N.pl3   1  UNL1        0.0000
    754 N         -22.6716    9.2817   32.9830 N.2     1  UNL1        0.0000
    755 N          -7.4328    5.4641   34.4140 N.pl3   1  UNL1        0.0000
    756 N          -9.4013   -4.1252   36.1969 N.pl3   1  UNL1        0.0000
    757 O          -7.9012    5.8883   31.8413 O.3     1  UNL1        0.0000
    758 O         -18.4816    2.1593   35.1708 O.2     1  UNL1        0.0000
    759 O         -11.3797   -2.4785   36.8126 O.3     1  UNL1        0.0000
    760 O         -14.9665   10.5476   30.2431 O.3     1  UNL1        0.0000
    761 O         -13.5978    9.7089   31.8375 O.3     1  UNL1        0.0000
    762 O         -12.6425   -1.5632   35.1830 O.3     1  UNL1        0.0000
    763 O          -6.5716    4.9374   30.2837 O.3     1  UNL1        0.0000
    764 O         -19.6508    3.2525   36.7702 O.2     1  UNL1        0.0000
    765 O          -9.2495    5.2471   29.5026 O.3     1  UNL1        0.0000
    766 O         -16.9948    2.8254   37.4458 O.3     1  UNL1        0.0000
    767 O          -7.8450    7.2691   29.4212 O.3     1  UNL1        0.0000
    768 O         -18.4740    0.8715   37.6449 O.3     1  UNL1        0.0000
    769 O         -14.0223   -2.2939   37.4465 O.3     1  UNL1        0.0000
    770 O         -12.3245   10.4243   29.5386 O.3     1  UNL1        0.0000
    771 O         -12.7928   -0.1770   37.6860 O.3     1  UNL1        0.0000
    772 O         -13.4733    8.2514   29.3940 O.3     1  UNL1        0.0000
    773 O         -10.5956    6.0911   31.9402 O.3     1  UNL1        0.0000
    774 O         -15.7820    1.9337   35.0052 O.3     1  UNL1        0.0000
    775 O          -8.8258    8.4259   31.6977 O.3     1  UNL1        0.0000
    776 O         -17.4714   -0.4584   35.4064 O.2     1  UNL1        0.0000
    777 O         -12.3473   -3.7679   39.1336 O.3     1  UNL1        0.0000
    778 O         -14.0431   11.8120   27.9563 O.3     1  UNL1        0.0000
    779 O         -10.5621   -1.4376   39.0334 O.2     1  UNL1        0.0000
    780 O         -15.7263    9.4105   27.9423 O.2     1  UNL1        0.0000
    781 O         -10.6895    9.6738   31.6796 O.3     1  UNL1        0.0000
    782 O         -15.4926   -1.5177   35.2596 O.2     1  UNL1        0.0000
    783 O         -12.4669    7.3498   31.9367 O.3     1  UNL1        0.0000
    784 O         -13.7968    0.8603   35.1498 O.3     1  UNL1        0.0000
    785 O          -5.7641    6.0529   27.8746 O.3     1  UNL1        0.0000
    786 O         -20.5113    2.1826   39.1054 O.2     1  UNL1        0.0000
    787 O          -7.5242    3.7009   27.9703 O.3     1  UNL1        0.0000
    788 O         -18.6065    4.4264   39.1343 O.3     1  UNL1        0.0000
    789 O         -10.7842    7.7375   29.6669 O.3     1  UNL1        0.0000
    790 O         -15.5249    0.3724   37.3235 O.3     1  UNL1        0.0000
    791 O          -8.3799    6.1698   26.8404 O.3     1  UNL1        0.0000
    792 O         -17.9063    1.9030   40.1910 O.3     1  UNL1        0.0000
    793 TI        -15.3020   32.6470   11.5368 Ti      1  UNL1        0.0000
    794 TI         -4.3005   35.7301    1.8452 Ti      1  UNL1        0.0000
    795 TI        -10.7561   29.3460    9.6194 Ti      1  UNL1        0.0000
    796 TI         -8.8937   39.0299    3.7585 Ti      1  UNL1        0.0000
    797 TI        -10.5829   39.9063    1.8002 Ti      1  UNL1        0.0000
    798 TI         -9.2671   28.1925   11.5819 Ti      1  UNL1        0.0000
    799 TI        -13.8620   31.3476    9.6315 Ti      1  UNL1        0.0000
    800 TI         -6.0083   36.7716    3.7025 Ti      1  UNL1        0.0000
    801 H          -8.6807   32.0309    7.1186 H       1  UNL1        0.0000
    802 H         -12.3409   26.3467    7.4433 H       1  UNL1        0.0000
    803 H          -7.2646   41.8282    5.9705 H       1  UNL1        0.0000
    804 H         -15.3072   36.6668   11.3581 H       1  UNL1        0.0000
    805 H          -4.4552   31.6002    2.1665 H       1  UNL1        0.0000
    806 H         -19.0504   31.0182   11.2168 H       1  UNL1        0.0000
    807 H          -0.6329   37.2235    2.0058 H       8  UNL8        0.0000
    808 H          -9.0206   24.0364   11.2866 H       1  UNL1        0.0000
    809 H         -14.4789   38.5071    2.0958 H      10  UNL10       0.0000
    810 H          -7.5567   33.9902    6.0204 H       1  UNL1        0.0000
    811 H         -12.3020   34.3185    7.4369 H       1  UNL1        0.0000
    812 H          -0.0133   28.5638    7.2727 H       1  UNL1        0.0000
    813 H         -14.4604   31.0165   13.2896 H       1  UNL1        0.0000
    814 H          -5.3386   37.1853    0.0226 H       1  UNL1        0.0000
    815 H         -11.8780   31.0204   11.1883 H       1  UNL1        0.0000
    816 H          -7.9652   37.2795    2.1610 H       1  UNL1        0.0000
    817 H          -8.6648   28.0005    6.1305 H       1  UNL1        0.0000
    818 H         -11.0465   40.1820    7.2704 H       1  UNL1        0.0000
    819 H         -18.3539   34.4380    9.1482 H       1  UNL1        0.0000
    820 H          -1.4398   33.7977    4.3122 H       1  UNL1        0.0000
    821 H         -15.9045   32.7909    6.0229 H       1  UNL1        0.0000
    822 H         -13.5038   42.0893    4.3009 H       1  UNL1        0.0000
    823 H         -12.3624   36.5126    6.5178 H       1  UNL1        0.0000
    824 H         -10.9568   37.2808    5.8096 H       1  UNL1        0.0000
    825 H         -10.7558   43.1253    2.5806 H       5  UNL5        0.0000
    826 H          -4.4750   29.5491    3.3716 H       1  UNL1        0.0000
    827 H          -4.8555   30.0662    9.9996 H       1  UNL1        0.0000
    828 H          -6.1983   29.2549   10.7782 H       1  UNL1        0.0000
    829 H         -18.3982   39.4011    6.3064 H       9  UNL9        0.0000
    830 H          -3.7679   38.6617    5.5086 H       1  UNL1        0.0000
    831 H          -4.2366   35.7578    8.5733 H       1  UNL1        0.0000
    832 H          -4.7443   36.0180    6.9126 H       1  UNL1        0.0000
    833 H          -5.2730   25.4373    9.5610 H       1  UNL1        0.0000
    834 H          -6.6092   26.4257   10.1283 H       1  UNL1        0.0000
    835 C          -3.6076   35.2389    4.6873 C.3     1  UNL1        0.0000
    836 C         -16.1550   33.0032    8.7224 C.2     1  UNL1        0.0000
    837 C          -8.3888   27.7700    8.7387 C.3     1  UNL1        0.0000
    838 C         -11.3535   40.4534    4.6390 C.2     1  UNL1        0.0000
    839 C          -2.7656   34.6727    5.7515 C.ar    1  UNL1        0.0000
    840 C         -17.0553   33.5726    7.6825 C.2     1  UNL1        0.0000
    841 C          -7.5423   27.1148    7.7281 C.ar    1  UNL1        0.0000
    842 C         -12.1949   41.0765    5.6993 C.2     1  UNL1        0.0000
    843 C          -3.0577   34.8644    7.1416 C.ar    1  UNL1        0.0000
    844 C         -16.7777   33.3680    6.3136 C.3     1  UNL1        0.0000
    845 C          -6.4500   26.2564    8.0840 C.ar    1  UNL1        0.0000
    846 C         -13.2796   41.9102    5.3487 C.3     1  UNL1        0.0000
    847 C         -11.8884   40.8296    7.0332 C.3     1  UNL1        0.0000
    848 C          -7.8276   27.3456    6.3623 C.ar    1  UNL1        0.0000
    849 C          -1.6268   33.9230    5.3762 C.ar    1  UNL1        0.0000
    850 C         -18.1679   34.3036    8.0844 C.3     1  UNL1        0.0000
    851 C          -9.2782   35.2640    6.1156 C.ar    1  UNL1        0.0000
    852 C         -10.5623   33.0768    7.3253 C.ar    1  UNL1        0.0000
    853 C          -5.5099   40.5969    5.9823 C.2     1  UNL1        0.0000
    854 C         -14.1150   27.5446    7.4181 C.2     1  UNL1        0.0000
    855 C          -4.3572   31.6774    0.0311 C.2     1  UNL1        0.0000
    856 C         -10.6728   44.0142    0.0837 C.3     1  UNL1        0.0000
    857 C          -5.4300   29.6569   13.2787 C.ar    1  UNL1        0.0000
    858 C         -19.0284   31.1039   13.3538 C.2     1  UNL1        0.0000
    859 C          -8.5647   36.3444    5.4137 C.3     1  UNL1        0.0000
    860 C         -11.2502   31.9280    7.9855 C.3     1  UNL1        0.0000
    861 C          -6.1838   39.5532    5.2014 C.2     1  UNL1        0.0000
    862 C         -13.4688   28.6405    8.1923 C.2     1  UNL1        0.0000
    863 C          -4.3097   33.1665    0.0302 C.2     1  UNL1        0.0000
    864 C         -10.6854   42.5462    0.0416 C.3     1  UNL1        0.0000
    865 C          -6.7159   28.9426   13.3139 C.3     1  UNL1        0.0000
    866 C         -17.7330   31.8448   13.3799 C.2     1  UNL1        0.0000
    867 C         -10.6458   35.3871    6.5247 C.ar    1  UNL1        0.0000
    868 C          -9.2079   32.9641    6.9438 C.ar    1  UNL1        0.0000
    869 C          -6.2326   41.7680    6.3074 C.3     1  UNL1        0.0000
    870 C         -13.3764   26.4067    7.1130 C.3     1  UNL1        0.0000
    871 C          -4.4368   31.0135    1.2500 C.2     1  UNL1        0.0000
    872 C         -15.3289   37.2547   12.2726 C.3     1  UNL1        0.0000
    873 C          -0.1090   37.5049    1.0955 C.2     8  UNL8        0.0000
    874 C         -19.5756   30.7395   12.1288 C.3     1  UNL1        0.0000
    875 C         -20.1486   40.4700    6.3973 C.3     9  UNL9        0.0000
    876 C           0.5407   27.6646    7.0193 C.ar    1  UNL1        0.0000
    877 C          -8.5930   34.0484    6.3447 C.ar    1  UNL1        0.0000
    878 C         -11.2619   34.2614    7.1206 C.ar    1  UNL1        0.0000
    879 C          -4.7787   30.0060   12.0508 C.ar    1  UNL1        0.0000
    880 C         -14.9282   38.2149    1.1513 C.3     6  UNL6        0.0000
    881 C          -9.0768   23.4959   12.2271 C.ar    1  UNL1        0.0000
    882 C          -4.5081   29.6025    1.3173 C.2     1  UNL1        0.0000
    883 N         -11.3584   36.5492    6.3947 N.pl3   1  UNL1        0.0000
    884 N          -4.6311   28.9995    2.5366 N.pl3   1  UNL1        0.0000
    885 N          -5.2534   29.6321   10.8228 N.pl3   1  UNL1        0.0000
    886 N         -19.3983   39.3512    6.1587 N.3     9  UNL9        0.0000
    887 N          -4.1595   35.5336    7.5898 N.pl3   1  UNL1        0.0000
    888 N          -6.1281   25.9443    9.3726 N.pl3   1  UNL1        0.0000
    889 O          -4.6280   35.9578    5.0170 O.3     1  UNL1        0.0000
    890 O         -15.2084   32.2288    8.3466 O.2     1  UNL1        0.0000
    891 O          -8.1065   27.5910    9.9884 O.3     1  UNL1        0.0000
    892 O         -11.6932   40.6171    3.4189 O.2     1  UNL1        0.0000
    893 O         -10.3246   39.7784    5.0133 O.2     1  UNL1        0.0000
    894 O          -9.3692   28.5063    8.3588 O.3     1  UNL1        0.0000
    895 O          -3.2984   35.0069    3.4595 O.3     1  UNL1        0.0000
    896 O         -16.3775   33.3220    9.9460 O.2     1  UNL1        0.0000
    897 O          -5.9762   35.3166    2.6784 O.3     1  UNL1        0.0000
    898 O         -13.7215   32.8949   10.6216 O.3     1  UNL1        0.0000
    899 O          -4.5718   37.3386    2.5970 O.3     1  UNL1        0.0000
    900 O         -15.2008   30.9409   10.8207 O.3     1  UNL1        0.0000
    901 O         -10.7491   27.7756   10.6223 O.3     1  UNL1        0.0000
    902 O          -9.0512   40.4938    2.7143 O.3     1  UNL1        0.0000
    903 O          -9.5196   29.8925   10.8618 O.3     1  UNL1        0.0000
    904 O         -10.2001   38.3209    2.5698 O.3     1  UNL1        0.0000
    905 O          -7.3223   36.1606    5.1160 O.3     1  UNL1        0.0000
    906 O         -12.5088   32.0032    8.1810 O.3     1  UNL1        0.0000
    907 O          -5.5526   38.4954    4.8735 O.2     1  UNL1        0.0000
    908 O         -14.1982   29.6111    8.5822 O.2     1  UNL1        0.0000
    909 O          -9.0741   26.3016   12.3094 O.3     1  UNL1        0.0000
    910 O         -10.7699   41.8815    1.1320 O.3     1  UNL1        0.0000
    911 O          -7.2889   28.6319   12.2092 O.3     1  UNL1        0.0000
    912 O         -12.4530   39.4800    1.1181 O.3     1  UNL1        0.0000
    913 O          -7.4162   39.7433    4.8554 O.2     1  UNL1        0.0000
    914 O         -12.2194   28.5518    8.4354 O.2     1  UNL1        0.0000
    915 O          -9.1937   37.4193    5.1125 O.3     1  UNL1        0.0000
    916 O         -10.5235   30.9298    8.3256 O.3     1  UNL1        0.0000
    917 O          -2.4908   36.1224    1.0504 O.3     1  UNL1        0.0000
    918 O         -17.2380   32.2521   12.2811 O.2     1  UNL1        0.0000
    919 O          -4.2510   33.7704    1.1461 O.2     1  UNL1        0.0000
    920 O         -15.3333   34.4959   12.3101 O.2     1  UNL1        0.0000
    921 O          -7.5109   37.8070    2.8426 O.3     1  UNL1        0.0000
    922 O         -12.2517   30.4419   10.4993 O.3     1  UNL1        0.0000
    923 O          -5.1067   36.2393    0.0162 O.3     1  UNL1        0.0000
    924 O         -14.6331   31.9725   13.3668 O.3     1  UNL1        0.0000
    925 TI        -20.0382   25.1822   24.9489 Ti      1  UNL1        0.0000
    926 TI         -9.0367   28.2654   15.2573 Ti      1  UNL1        0.0000
    927 TI        -15.4923   21.8812   23.0316 Ti      1  UNL1        0.0000
    928 TI        -13.6300   31.5652   17.1706 Ti      1  UNL1        0.0000
    929 TI        -15.3192   32.4416   15.2123 Ti      1  UNL1        0.0000
    930 TI        -14.0033   20.7277   24.9940 Ti      1  UNL1        0.0000
    931 TI        -18.5983   23.8829   23.0436 Ti      1  UNL1        0.0000
    932 TI        -10.7446   29.3069   17.1146 Ti      1  UNL1        0.0000
    933 H         -13.4170   24.5661   20.5307 H       1  UNL1        0.0000
    934 H         -17.0771   18.8819   20.8554 H       1  UNL1        0.0000
    935 H         -12.0009   34.3635   19.3826 H       1  UNL1        0.0000
    936 H         -20.0435   29.2021   24.7702 H       1  UNL1        0.0000
    937 H          -9.1915   24.1355   15.5786 H       1  UNL1        0.0000
    938 H         -23.7867   23.5535   24.6290 H       1  UNL1        0.0000
    939 H          -5.3692   29.7588   15.4179 H       1  UNL1        0.0000
    940 H         -13.7569   16.5717   24.6987 H       1  UNL1        0.0000
    941 H         -19.2152   31.0424   15.5079 H       1  UNL1        0.0000
    942 H         -12.2929   26.5255   19.4325 H       1  UNL1        0.0000
    943 H         -17.0383   26.8537   20.8490 H       1  UNL1        0.0000
    944 H          -4.7496   21.0991   20.6849 H       1  UNL1        0.0000
    945 H         -19.1966   23.5518   26.7017 H       1  UNL1        0.0000
    946 H         -10.0748   29.7206   13.4347 H       1  UNL1        0.0000
    947 H         -16.6143   23.5557   24.6004 H       1  UNL1        0.0000
    948 H         -12.7015   29.8148   15.5731 H       1  UNL1        0.0000
    949 H         -13.4010   20.5358   19.5426 H       1  UNL1        0.0000
    950 H         -15.7827   32.7172   20.6825 H       1  UNL1        0.0000
    951 H         -23.0902   26.9733   22.5603 H       1  UNL1        0.0000
    952 H          -6.1761   26.3330   17.7243 H       1  UNL1        0.0000
    953 H         -20.6408   25.3262   19.4351 H       1  UNL1        0.0000
    954 H         -18.2401   34.6246   17.7130 H       1  UNL1        0.0000
    955 H         -17.0986   29.0479   19.9299 H       1  UNL1        0.0000
    956 H         -15.6931   29.8161   19.2218 H       1  UNL1        0.0000
    957 H         -15.4921   35.6606   15.9927 H       7  UNL7        0.0000
    958 H          -9.2112   22.0843   16.7837 H       1  UNL1        0.0000
    959 H          -9.5917   22.6015   23.4117 H       1  UNL1        0.0000
    960 H         -10.9345   21.7901   24.1903 H       1  UNL1        0.0000
    961 H         -23.1345   31.9363   19.7185 H      11  UNL11       0.0000
    962 H          -8.5041   31.1970   18.9207 H       1  UNL1        0.0000
    963 H          -8.9728   28.2931   21.9855 H       1  UNL1        0.0000
    964 H          -9.4805   28.5533   20.3247 H       1  UNL1        0.0000
    965 H         -10.0093   17.9726   22.9731 H       1  UNL1        0.0000
    966 H         -11.3454   18.9610   23.5404 H       1  UNL1        0.0000
    967 C          -8.3439   27.7742   18.0994 C.3     1  UNL1        0.0000
    968 C         -20.8912   25.5384   22.1346 C.2     1  UNL1        0.0000
    969 C         -13.1250   20.3053   22.1508 C.3     1  UNL1        0.0000
    970 C         -16.0898   32.9887   18.0511 C.2     1  UNL1        0.0000
    971 C          -7.5019   27.2079   19.1636 C.ar    1  UNL1        0.0000
    972 C         -21.7915   26.1079   21.0946 C.2     1  UNL1        0.0000
    973 C         -12.2785   19.6501   21.1402 C.ar    1  UNL1        0.0000
    974 C         -16.9312   33.6118   19.1114 C.2     1  UNL1        0.0000
    975 C          -7.7940   27.3997   20.5537 C.ar    1  UNL1        0.0000
    976 C         -21.5140   25.9033   19.7257 C.3     1  UNL1        0.0000
    977 C         -11.1862   18.7917   21.4961 C.ar    1  UNL1        0.0000
    978 C         -18.0159   34.4455   18.7608 C.3     1  UNL1        0.0000
    979 C         -16.6246   33.3649   20.4453 C.3     1  UNL1        0.0000
    980 C         -12.5639   19.8809   19.7744 C.ar    1  UNL1        0.0000
    981 C          -6.3631   26.4582   18.7883 C.ar    1  UNL1        0.0000
    982 C         -22.9042   26.8389   21.4965 C.3     1  UNL1        0.0000
    983 C         -14.0144   27.7992   19.5277 C.ar    1  UNL1        0.0000
    984 C         -15.2985   25.6121   20.7374 C.ar    1  UNL1        0.0000
    985 C         -10.2461   33.1321   19.3944 C.2     1  UNL1        0.0000
    986 C         -18.8513   20.0799   20.8302 C.2     1  UNL1        0.0000
    987 C          -9.0935   24.2127   13.4432 C.ar    1  UNL1        0.0000
    988 C         -15.4090   36.5495   13.4958 C.2     1  UNL1        0.0000
    989 C         -10.1663   22.1922   26.6908 C.ar    1  UNL1        0.0000
    990 C         -23.7647   23.6391   26.7659 C.2     1  UNL1        0.0000
    991 C         -13.3010   28.8796   18.8258 C.3     1  UNL1        0.0000
    992 C         -15.9864   24.4633   21.3976 C.3     1  UNL1        0.0000
    993 C         -10.9201   32.0885   18.6135 C.2     1  UNL1        0.0000
    994 C         -18.2050   21.1758   21.6044 C.2     1  UNL1        0.0000
    995 C          -9.0460   25.7018   13.4423 C.3     1  UNL1        0.0000
    996 C         -15.4217   35.0815   13.4537 C.2     1  UNL1        0.0000
    997 C         -11.4522   21.4779   26.7260 C.3     1  UNL1        0.0000
    998 C         -22.4693   24.3801   26.7920 C.2     1  UNL1        0.0000
    999 C         -15.3820   27.9224   19.9368 C.ar    1  UNL1        0.0000
   1000 C         -13.9442   25.4993   20.3559 C.ar    1  UNL1        0.0000
   1001 C         -10.9689   34.3033   19.7195 C.3     1  UNL1        0.0000
   1002 C         -18.1127   18.9420   20.5252 C.3     1  UNL1        0.0000
   1003 C          -9.1730   23.5488   14.6622 C.ar    1  UNL1        0.0000
   1004 C         -20.0651   29.7900   25.6847 C.3     1  UNL1        0.0000
   1005 C          -4.8452   30.0402   14.5077 C.ar    1  UNL1        0.0000
   1006 C         -24.3119   23.2748   25.5409 C.3     1  UNL1        0.0000
   1007 C         -24.8848   33.0053   19.8094 C.3    11  UNL11       0.0000
   1008 C          -4.1956   20.1999   20.4314 C.ar    1  UNL1        0.0000
   1009 C         -13.3292   26.5837   19.7569 C.ar    1  UNL1        0.0000
   1010 C         -15.9982   26.7967   20.5328 C.ar    1  UNL1        0.0000
   1011 C          -9.5149   22.5413   25.4629 C.ar    1  UNL1        0.0000
   1012 C         -19.6644   30.7501   14.5634 C.3     1  UNL1        0.0000
   1013 C         -13.8131   16.0312   25.6392 C.ar    1  UNL1        0.0000
   1014 C          -9.2444   22.1378   14.7294 C.ar    1  UNL1        0.0000
   1015 N         -16.0946   29.0845   19.8068 N.pl3   1  UNL1        0.0000
   1016 N          -9.3674   21.5348   15.9488 N.pl3   1  UNL1        0.0000
   1017 N          -9.9896   22.1674   24.2349 N.pl3   1  UNL1        0.0000
   1018 N         -24.1346   31.8865   19.5708 N.3    11  UNL11       0.0000
   1019 N          -8.8958   28.0688   21.0019 N.pl3   1  UNL1        0.0000
   1020 N         -10.8643   18.4796   22.7848 N.pl3   1  UNL1        0.0000
   1021 O          -9.3643   28.4931   18.4291 O.3     1  UNL1        0.0000
   1022 O         -19.9447   24.7640   21.7587 O.2     1  UNL1        0.0000
   1023 O         -12.8427   20.1263   23.4005 O.3     1  UNL1        0.0000
   1024 O         -16.4295   33.1523   16.8310 O.2     1  UNL1        0.0000
   1025 O         -15.0608   32.3137   18.4254 O.2     1  UNL1        0.0000
   1026 O         -14.1055   21.0415   21.7709 O.3     1  UNL1        0.0000
   1027 O          -8.0347   27.5422   16.8716 O.3     1  UNL1        0.0000
   1028 O         -21.1138   25.8573   23.3581 O.2     1  UNL1        0.0000
   1029 O         -10.7125   27.8519   16.0905 O.3     1  UNL1        0.0000
   1030 O         -18.4578   25.4302   24.0337 O.3     1  UNL1        0.0000
   1031 O          -9.3080   29.8738   16.0091 O.3     1  UNL1        0.0000
   1032 O         -19.9370   23.4762   24.2328 O.3     1  UNL1        0.0000
   1033 O         -15.4853   20.3109   24.0344 O.3     1  UNL1        0.0000
   1034 O         -13.7875   33.0291   16.1265 O.3     1  UNL1        0.0000
   1035 O         -14.2558   22.4278   24.2739 O.3     1  UNL1        0.0000
   1036 O         -14.9364   30.8562   15.9819 O.3     1  UNL1        0.0000
   1037 O         -12.0586   28.6959   18.5281 O.3     1  UNL1        0.0000
   1038 O         -17.2450   24.5385   21.5931 O.3     1  UNL1        0.0000
   1039 O         -10.2889   31.0307   18.2856 O.2     1  UNL1        0.0000
   1040 O         -18.9344   22.1464   21.9943 O.2     1  UNL1        0.0000
   1041 O         -13.8104   18.8369   25.7215 O.3     1  UNL1        0.0000
   1042 O         -15.5062   34.4167   14.5441 O.2     1  UNL1        0.0000
   1043 O         -12.0252   21.1672   25.6213 O.3     1  UNL1        0.0000
   1044 O         -17.1893   32.0153   14.5302 O.2     1  UNL1        0.0000
   1045 O         -12.1525   32.2785   18.2675 O.2     1  UNL1        0.0000
   1046 O         -16.9557   21.0871   21.8475 O.2     1  UNL1        0.0000
   1047 O         -13.9299   29.9546   18.5246 O.3     1  UNL1        0.0000
   1048 O         -15.2598   23.4650   21.7377 O.3     1  UNL1        0.0000
   1049 O          -7.2271   28.6577   14.4625 O.3     1  UNL1        0.0000
   1050 O         -21.9743   24.7873   25.6933 O.2     1  UNL1        0.0000
   1051 O          -8.9872   26.3056   14.5582 O.3     1  UNL1        0.0000
   1052 O         -20.0696   27.0312   25.7222 O.2     1  UNL1        0.0000
   1053 O         -12.2472   30.3423   16.2548 O.3     1  UNL1        0.0000
   1054 O         -16.9879   22.9772   23.9114 O.3     1  UNL1        0.0000
   1055 O          -9.8429   28.7746   13.4283 O.3     1  UNL1        0.0000
   1056 O         -19.3693   24.5078   26.7789 O.3     1  UNL1        0.0000
   1057 TI        -24.7745   17.7175   38.3610 Ti      1  UNL1        0.0000
   1058 TI        -13.7730   20.8007   28.6694 Ti      1  UNL1        0.0000
   1059 TI        -20.2286   14.4165   36.4437 Ti      1  UNL1        0.0000
   1060 TI        -18.3662   24.1004   30.5827 Ti      1  UNL1        0.0000
   1061 TI        -20.0555   24.9769   28.6244 Ti      1  UNL1        0.0000
   1062 TI        -18.7396   13.2630   38.4061 Ti      1  UNL1        0.0000
   1063 TI        -23.3345   16.4182   36.4557 Ti      1  UNL1        0.0000
   1064 TI        -15.4809   21.8422   30.5267 Ti      1  UNL1        0.0000
   1065 H         -18.1532   17.1014   33.9428 H       1  UNL1        0.0000
   1066 H         -21.8134   11.4172   34.2675 H       1  UNL1        0.0000
   1067 H         -16.7372   26.8988   32.7947 H       1  UNL1        0.0000
   1068 H         -24.7798   21.7373   38.1823 H      12  UNL12       0.0000
   1069 H         -13.9278   16.6707   28.9907 H       1  UNL1        0.0000
   1070 H         -28.5230   16.0888   38.0411 H       1  UNL1        0.0000
   1071 H         -10.1054   22.2940   28.8300 H       1  UNL1        0.0000
   1072 H         -18.4931    9.1070   38.1108 H       7  UNL7        0.0000
   1073 H         -23.9514   23.5776   28.9200 H       1  UNL1        0.0000
   1074 H         -17.0292   19.0608   32.8446 H       1  UNL1        0.0000
   1075 H         -21.7745   19.3890   34.2611 H       1  UNL1        0.0000
   1076 H          -9.4858   13.6344   34.0970 H       1  UNL1        0.0000
   1077 H         -23.9329   16.0870   40.1138 H       1  UNL1        0.0000
   1078 H         -14.8111   22.2559   26.8468 H       1  UNL1        0.0000
   1079 H         -21.3506   16.0909   38.0125 H       1  UNL1        0.0000
   1080 H         -17.4377   22.3500   28.9852 H       1  UNL1        0.0000
   1081 H         -18.1373   13.0711   32.9548 H       1  UNL1        0.0000
   1082 H         -20.5190   25.2525   34.0946 H       1  UNL1        0.0000
   1083 H         -27.8264   19.5086   35.9724 H       1  UNL1        0.0000
   1084 H         -10.9123   18.8683   31.1364 H       1  UNL1        0.0000
   1085 H         -25.3771   17.8615   32.8472 H       1  UNL1        0.0000
   1086 H         -22.9763   27.1598   31.1251 H       1  UNL1        0.0000
   1087 H         -21.8349   21.5832   33.3420 H       1  UNL1        0.0000
   1088 H         -20.4293   22.3513   32.6339 H       1  UNL1        0.0000
   1089 H         -20.2283   28.1959   29.4048 H       8  UNL8        0.0000
   1090 H         -13.9475   14.6196   30.1958 H       1  UNL1        0.0000
   1091 H         -14.3280   15.1368   36.8238 H       1  UNL1        0.0000
   1092 H         -15.6708   14.3254   37.6024 H       1  UNL1        0.0000
   1093 H         -27.8707   24.4716   33.1306 H      13  UNL13       0.0000
   1094 H         -13.2404   23.7323   32.3328 H       1  UNL1        0.0000
   1095 H         -13.7091   20.8284   35.3976 H       1  UNL1        0.0000
   1096 H         -14.2168   21.0885   33.7368 H       1  UNL1        0.0000
   1097 H         -14.7455   10.5079   36.3852 H       1  UNL1        0.0000
   1098 H         -16.0817   11.4963   36.9525 H       1  UNL1        0.0000
   1099 C         -13.0801   20.3094   31.5115 C.3     1  UNL1        0.0000
   1100 C         -25.6275   18.0737   35.5467 C.2     1  UNL1        0.0000
   1101 C         -17.8613   12.8405   35.5629 C.3     1  UNL1        0.0000
   1102 C         -20.8260   25.5240   31.4632 C.2     1  UNL1        0.0000
   1103 C         -12.2381   19.7432   32.5757 C.ar    1  UNL1        0.0000
   1104 C         -26.5278   18.6431   34.5067 C.2     1  UNL1        0.0000
   1105 C         -17.0148   12.1854   34.5524 C.ar    1  UNL1        0.0000
   1106 C         -21.6675   26.1471   32.5235 C.2     1  UNL1        0.0000
   1107 C         -12.5303   19.9350   33.9658 C.ar    1  UNL1        0.0000
   1108 C         -26.2503   18.4385   33.1378 C.3     1  UNL1        0.0000
   1109 C         -15.9225   11.3269   34.9082 C.ar    1  UNL1        0.0000
   1110 C         -22.7521   26.9807   32.1729 C.3     1  UNL1        0.0000
   1111 C         -21.3609   25.9002   33.8574 C.3     1  UNL1        0.0000
   1112 C         -17.3001   12.4161   33.1865 C.ar    1  UNL1        0.0000
   1113 C         -11.0993   18.9935   32.2004 C.ar    1  UNL1        0.0000
   1114 C         -27.6404   19.3742   34.9086 C.3     1  UNL1        0.0000
   1115 C         -18.7507   20.3345   32.9398 C.ar    1  UNL1        0.0000
   1116 C         -20.0348   18.1474   34.1495 C.ar    1  UNL1        0.0000
   1117 C         -14.9824   25.6674   32.8065 C.2     1  UNL1        0.0000
   1118 C         -23.5875   12.6151   34.2423 C.2     1  UNL1        0.0000
   1119 C         -13.8297   16.7479   26.8553 C.ar    1  UNL1        0.0000
   1120 C         -20.1453   29.0848   26.9079 C.2     1  UNL1        0.0000
   1121 C         -14.9026   14.7275   40.1030 C.2     1  UNL1        0.0000
   1122 C         -28.5009   16.1744   40.1780 C.2     1  UNL1        0.0000
   1123 C         -18.0372   21.4149   32.2379 C.3     1  UNL1        0.0000
   1124 C         -20.7227   16.9986   34.8097 C.3     1  UNL1        0.0000
   1125 C         -15.6563   24.6238   32.0256 C.2     1  UNL1        0.0000
   1126 C         -22.9413   13.7110   35.0165 C.2     1  UNL1        0.0000
   1127 C         -13.7823   18.2371   26.8544 C.3     1  UNL1        0.0000
   1128 C         -20.1580   27.6168   26.8658 C.2     1  UNL1        0.0000
   1129 C         -16.1884   14.0132   40.1381 C.2     1  UNL1        0.0000
   1130 C         -27.2055   16.9153   40.2041 C.2     1  UNL1        0.0000
   1131 C         -20.1183   20.4577   33.3489 C.ar    1  UNL1        0.0000
   1132 C         -18.6805   18.0346   33.7680 C.ar    1  UNL1        0.0000
   1133 C         -15.7051   26.8385   33.1317 C.3     1  UNL1        0.0000
   1134 C         -22.8489   11.4773   33.9373 C.3     1  UNL1        0.0000
   1135 C         -13.9093   16.0840   28.0743 C.ar    1  UNL1        0.0000
   1136 C         -24.8014   22.3253   39.0968 C.3     9  UNL9        0.0000
   1137 C          -9.5815   22.5755   27.9198 C.ar    1  UNL1        0.0000
   1138 C         -29.0481   15.8101   38.9530 C.3     1  UNL1        0.0000
   1139 C         -29.6211   25.5406   33.2215 C.3    13  UNL13       0.0000
   1140 C          -8.9319   12.7351   33.8435 C.ar    1  UNL1        0.0000
   1141 C         -18.0655   19.1190   33.1690 C.ar    1  UNL1        0.0000
   1142 C         -20.7345   19.3319   33.9449 C.ar    1  UNL1        0.0000
   1143 C         -14.2512   15.0766   38.8750 C.2     1  UNL1        0.0000
   1144 C         -24.4007   23.2854   27.9755 C.3     1  UNL1        0.0000
   1145 C         -18.5494    8.5665   39.0513 C.2     7  UNL7        0.0000
   1146 C         -13.9806   14.6730   28.1415 C.ar    1  UNL1        0.0000
   1147 N         -20.8309   21.6198   33.2189 N.pl3   1  UNL1        0.0000
   1148 N         -14.1036   14.0700   29.3609 N.pl3   1  UNL1        0.0000
   1149 N         -14.7259   14.7027   37.6471 N.pl3   1  UNL1        0.0000
   1150 N         -28.8708   24.4218   32.9830 N.3    13  UNL13       0.0000
   1151 N         -13.6321   20.6041   34.4140 N.pl3   1  UNL1        0.0000
   1152 N         -15.6006   11.0148   36.1969 N.pl3   1  UNL1        0.0000
   1153 O         -14.1005   21.0284   31.8413 O.3     1  UNL1        0.0000
   1154 O         -24.6809   17.2993   35.1708 O.2     1  UNL1        0.0000
   1155 O         -17.5790   12.6616   36.8126 O.3     1  UNL1        0.0000
   1156 O         -21.1658   25.6876   30.2431 O.2     1  UNL1        0.0000
   1157 O         -19.7971   24.8489   31.8375 O.2     1  UNL1        0.0000
   1158 O         -18.8418   13.5768   35.1830 O.3     1  UNL1        0.0000
   1159 O         -12.7709   20.0775   30.2837 O.3     1  UNL1        0.0000
   1160 O         -25.8500   18.3926   36.7702 O.2     1  UNL1        0.0000
   1161 O         -15.4488   20.3872   29.5026 O.3     1  UNL1        0.0000
   1162 O         -23.1941   17.9655   37.4458 O.3     1  UNL1        0.0000
   1163 O         -14.0443   22.4091   29.4212 O.3     1  UNL1        0.0000
   1164 O         -24.6733   16.0115   37.6449 O.3     1  UNL1        0.0000
   1165 O         -20.2216   12.8461   37.4465 O.3     1  UNL1        0.0000
   1166 O         -18.5238   25.5643   29.5386 O.3     1  UNL1        0.0000
   1167 O         -18.9921   14.9631   37.6860 O.3     1  UNL1        0.0000
   1168 O         -19.6726   23.3914   29.3940 O.3     1  UNL1        0.0000
   1169 O         -16.7948   21.2312   31.9402 O.3     1  UNL1        0.0000
   1170 O         -21.9813   17.0737   35.0052 O.3     1  UNL1        0.0000
   1171 O         -15.0251   23.5659   31.6977 O.2     1  UNL1        0.0000
   1172 O         -23.6707   14.6817   35.4064 O.2     1  UNL1        0.0000
   1173 O         -18.5466   11.3721   39.1336 O.3     1  UNL1        0.0000
   1174 O         -20.2424   26.9520   27.9563 O.2     1  UNL1        0.0000
   1175 O         -16.7614   13.7025   39.0334 O.2     1  UNL1        0.0000
   1176 O         -21.9255   24.5505   27.9423 O.2     1  UNL1        0.0000
   1177 O         -16.8887   24.8138   31.6796 O.2     1  UNL1        0.0000
   1178 O         -21.6919   13.6224   35.2596 O.2     1  UNL1        0.0000
   1179 O         -18.6662   22.4898   31.9367 O.3     1  UNL1        0.0000
   1180 O         -19.9961   16.0003   35.1498 O.3     1  UNL1        0.0000
   1181 O         -11.9634   21.1930   27.8746 O.3     1  UNL1        0.0000
   1182 O         -26.7106   17.3226   39.1054 O.2     1  UNL1        0.0000
   1183 O         -13.7235   18.8409   27.9703 O.3     1  UNL1        0.0000
   1184 O         -24.8058   19.5664   39.1343 O.3     1  UNL1        0.0000
   1185 O         -16.9835   22.8776   29.6669 O.3     1  UNL1        0.0000
   1186 O         -21.7242   15.5125   37.3235 O.3     1  UNL1        0.0000
   1187 O         -14.5792   21.3099   26.8404 O.3     1  UNL1        0.0000
   1188 O         -24.1056   17.0431   40.1910 O.3     1  UNL1        0.0000
   1189 TI         13.1008    2.3669   11.5368 Ti      1  UNL1        0.0000
   1190 TI         24.1024    5.4500    1.8452 Ti      1  UNL1        0.0000
   1191 TI         17.6468   -0.9341    9.6194 Ti      1  UNL1        0.0000
   1192 TI         19.5091    8.7498    3.7585 Ti      1  UNL1        0.0000
   1193 TI         17.8199    9.6262    1.8002 Ti      1  UNL1        0.0000
   1194 TI         19.1358   -2.0876   11.5819 Ti      1  UNL1        0.0000
   1195 TI         14.5408    1.0675    9.6315 Ti      1  UNL1        0.0000
   1196 TI         22.3945    6.4915    3.7025 Ti      1  UNL1        0.0000
   1197 H          19.7221    1.7508    7.1186 H       1  UNL1        0.0000
   1198 H          16.0619   -3.9334    7.4433 H       1  UNL1        0.0000
   1199 H          21.1382   11.5481    5.9705 H       1  UNL1        0.0000
   1200 H          13.0956    6.3867   11.3581 H       1  UNL1        0.0000
   1201 H          23.9476    1.3201    2.1665 H       1  UNL1        0.0000
   1202 H           9.3524    0.7381   11.2168 H       1  UNL1        0.0000
   1203 H          27.7699    6.9434    2.0058 H      14  UNL14       0.0000
   1204 H          19.3822   -6.2437   11.2866 H       1  UNL1        0.0000
   1205 H          13.9239    8.2270    2.0958 H       1  UNL1        0.0000
   1206 H          20.8461    3.7101    6.0204 H       1  UNL1        0.0000
   1207 H          16.1008    4.0384    7.4369 H       1  UNL1        0.0000
   1208 H          28.3895   -1.7163    7.2727 H       1  UNL1        0.0000
   1209 H          13.9425    0.7364   13.2896 H       1  UNL1        0.0000
   1210 H          23.0642    6.9052    0.0226 H       1  UNL1        0.0000
   1211 H          16.5248    0.7403   11.1883 H       1  UNL1        0.0000
   1212 H          20.4376    6.9994    2.1610 H       1  UNL1        0.0000
   1213 H          19.7381   -2.2796    6.1305 H       1  UNL1        0.0000
   1214 H          17.3564    9.9019    7.2704 H       1  UNL1        0.0000
   1215 H          10.0489    4.1579    9.1482 H       1  UNL1        0.0000
   1216 H          26.9630    3.5176    4.3122 H       1  UNL1        0.0000
   1217 H          12.4983    2.5108    6.0229 H       1  UNL1        0.0000
   1218 H          14.8990   11.8092    4.3009 H       1  UNL1        0.0000
   1219 H          16.0405    6.2325    6.5178 H       1  UNL1        0.0000
   1220 H          17.4460    7.0007    5.8096 H       1  UNL1        0.0000
   1221 H          17.6470   12.8452    2.5806 H       1  UNL1        0.0000
   1222 H          23.9279   -0.7310    3.3716 H       1  UNL1        0.0000
   1223 H          23.5473   -0.2139    9.9996 H       1  UNL1        0.0000
   1224 H          22.2046   -1.0252   10.7782 H       1  UNL1        0.0000
   1225 H          10.0046    9.1210    6.3064 H       1  UNL1        0.0000
   1226 H          24.6350    8.3816    5.5086 H       1  UNL1        0.0000
   1227 H          24.1662    5.4777    8.5733 H       1  UNL1        0.0000
   1228 H          23.6586    5.7379    6.9126 H       1  UNL1        0.0000
   1229 H          23.1298   -4.8428    9.5610 H       1  UNL1        0.0000
   1230 H          21.7937   -3.8544   10.1283 H       1  UNL1        0.0000
   1231 C          24.7952    4.9588    4.6873 C.3     1  UNL1        0.0000
   1232 C          12.2479    2.7231    8.7224 C.3     1  UNL1        0.0000
   1233 C          20.0141   -2.5101    8.7387 C.2     1  UNL1        0.0000
   1234 C          17.0493   10.1733    4.6390 C.3     1  UNL1        0.0000
   1235 C          25.6372    4.3926    5.7515 C.ar    1  UNL1        0.0000
   1236 C          11.3476    3.2925    7.6825 C.ar    1  UNL1        0.0000
   1237 C          20.8606   -3.1653    7.7281 C.2     1  UNL1        0.0000
   1238 C          16.2079   10.7964    5.6993 C.ar    1  UNL1        0.0000
   1239 C          25.3451    4.5844    7.1416 C.ar    1  UNL1        0.0000
   1240 C          11.6251    3.0879    6.3136 C.ar    1  UNL1        0.0000
   1241 C          21.9529   -4.0237    8.0840 C.3     1  UNL1        0.0000
   1242 C          15.1232   11.6301    5.3487 C.ar    1  UNL1        0.0000
   1243 C          16.5145   10.5495    7.0332 C.ar    1  UNL1        0.0000
   1244 C          20.5752   -2.9345    6.3623 C.3     1  UNL1        0.0000
   1245 C          26.7760    3.6429    5.3762 C.ar    1  UNL1        0.0000
   1246 C          10.2349    4.0235    8.0844 C.ar    1  UNL1        0.0000
   1247 C          19.1247    4.9839    6.1156 C.ar    1  UNL1        0.0000
   1248 C          17.8406    2.7967    7.3253 C.ar    1  UNL1        0.0000
   1249 C          22.8930   10.3168    5.9823 C.ar    1  UNL1        0.0000
   1250 C          14.2878   -2.7355    7.4181 C.2     1  UNL1        0.0000
   1251 C          24.0456    1.3973    0.0311 C.2     1  UNL1        0.0000
   1252 C          17.7301   13.7341    0.0837 C.2     1  UNL1        0.0000
   1253 C          22.9728   -0.6232   13.2787 C.ar    1  UNL1        0.0000
   1254 C           9.3744    0.8238   13.3538 C.ar    1  UNL1        0.0000
   1255 C          19.8381    6.0643    5.4137 C.3     1  UNL1        0.0000
   1256 C          17.1527    1.6479    7.9855 C.3     1  UNL1        0.0000
   1257 C          22.2190    9.2731    5.2014 C.3     1  UNL1        0.0000
   1258 C          14.9341   -1.6396    8.1923 C.2     1  UNL1        0.0000
   1259 C          24.0931    2.8865    0.0302 C.2     1  UNL1        0.0000
   1260 C          17.7174   12.2661    0.0416 C.2     1  UNL1        0.0000
   1261 C          21.6869   -1.3375   13.3139 C.3     1  UNL1        0.0000
   1262 C          10.6698    1.5647   13.3799 C.3     1  UNL1        0.0000
   1263 C          17.7570    5.1070    6.5247 C.ar    1  UNL1        0.0000
   1264 C          19.1949    2.6840    6.9438 C.ar    1  UNL1        0.0000
   1265 C          22.1702   11.4879    6.3074 C.ar    1  UNL1        0.0000
   1266 C          15.0264   -3.8734    7.1130 C.3     1  UNL1        0.0000
   1267 C          23.9661    0.7334    1.2500 C.3     1  UNL1        0.0000
   1268 C          13.0739    6.9746   12.2726 C.ar    1  UNL1        0.0000
   1269 C          28.2938    7.2248    1.0955 C.2    14  UNL14       0.0000
   1270 C           8.8272    0.4594   12.1288 C.ar    1  UNL1        0.0000
   1271 C           8.2543   10.1899    6.3973 C.ar    1  UNL1        0.0000
   1272 C          28.9435   -2.6155    7.0193 C.3     1  UNL1        0.0000
   1273 C          19.8098    3.7683    6.3447 C.ar    1  UNL1        0.0000
   1274 C          17.1409    3.9813    7.1206 C.ar    1  UNL1        0.0000
   1275 C          23.6242   -0.2741   12.0508 C.ar    1  UNL1        0.0000
   1276 C          13.4747    7.9348    1.1513 C.2     1  UNL1        0.0000
   1277 C          19.3260   -6.7842   12.2271 C.3     1  UNL1        0.0000
   1278 C          23.8947   -0.6776    1.3173 C.2     1  UNL1        0.0000
   1279 N          17.0445    6.2691    6.3947 N.pl3   1  UNL1        0.0000
   1280 N          23.7717   -1.2806    2.5366 N.2     1  UNL1        0.0000
   1281 N          23.1495   -0.6480   10.8228 N.pl3   1  UNL1        0.0000
   1282 N           9.0045    9.0711    6.1587 N.pl3   1  UNL1        0.0000
   1283 N          24.2433    5.2535    7.5898 N.pl3   1  UNL1        0.0000
   1284 N          22.2748   -4.3358    9.3726 N.3     1  UNL1        0.0000
   1285 O          23.7748    5.6777    5.0170 O.3     1  UNL1        0.0000
   1286 O          13.1944    1.9487    8.3466 O.3     1  UNL1        0.0000
   1287 O          20.2964   -2.6891    9.9884 O.2     1  UNL1        0.0000
   1288 O          16.7096   10.3370    3.4189 O.3     1  UNL1        0.0000
   1289 O          18.0783    9.4983    5.0133 O.3     1  UNL1        0.0000
   1290 O          19.0336   -1.7738    8.3588 O.2     1  UNL1        0.0000
   1291 O          25.1044    4.7268    3.4595 O.3     1  UNL1        0.0000
   1292 O          12.0253    3.0419    9.9460 O.3     1  UNL1        0.0000
   1293 O          22.4266    5.0365    2.6784 O.3     1  UNL1        0.0000
   1294 O          14.6813    2.6148   10.6216 O.3     1  UNL1        0.0000
   1295 O          23.8311    7.0585    2.5970 O.3     1  UNL1        0.0000
   1296 O          13.2021    0.6609   10.8207 O.3     1  UNL1        0.0000
   1297 O          17.6538   -2.5045   10.6223 O.3     1  UNL1        0.0000
   1298 O          19.3516   10.2137    2.7143 O.3     1  UNL1        0.0000
   1299 O          18.8832   -0.3876   10.8618 O.3     1  UNL1        0.0000
   1300 O          18.2027    8.0408    2.5698 O.3     1  UNL1        0.0000
   1301 O          21.0805    5.8805    5.1160 O.3     1  UNL1        0.0000
   1302 O          15.8941    1.7231    8.1810 O.3     1  UNL1        0.0000
   1303 O          22.8502    8.2153    4.8735 O.3     1  UNL1        0.0000
   1304 O          14.2047   -0.6690    8.5822 O.2     1  UNL1        0.0000
   1305 O          19.3287   -3.9785   12.3094 O.2     1  UNL1        0.0000
   1306 O          17.6329   11.6014    1.1320 O.2     1  UNL1        0.0000
   1307 O          21.1139   -1.6482   12.2092 O.3     1  UNL1        0.0000
   1308 O          15.9498    9.1999    1.1181 O.3     1  UNL1        0.0000
   1309 O          20.9866    9.4632    4.8554 O.3     1  UNL1        0.0000
   1310 O          16.1834   -1.7283    8.4354 O.2     1  UNL1        0.0000
   1311 O          19.2091    7.1392    5.1125 O.3     1  UNL1        0.0000
   1312 O          17.8793    0.6497    8.3256 O.3     1  UNL1        0.0000
   1313 O          25.9120    5.8423    1.0504 O.3     1  UNL1        0.0000
   1314 O          11.1648    1.9720   12.2811 O.3     1  UNL1        0.0000
   1315 O          24.1519    3.4903    1.1461 O.2     1  UNL1        0.0000
   1316 O          13.0695    4.2158   12.3101 O.3     1  UNL1        0.0000
   1317 O          20.8919    7.5269    2.8426 O.3     1  UNL1        0.0000
   1318 O          16.1512    0.1618   10.4993 O.3     1  UNL1        0.0000
   1319 O          23.2961    5.9592    0.0162 O.3     1  UNL1        0.0000
   1320 O          13.7698    1.6924   13.3668 O.3     1  UNL1        0.0000
   1321 TI          8.3646   -5.0979   24.9489 Ti      1  UNL1        0.0000
   1322 TI         19.3661   -2.0147   15.2573 Ti      1  UNL1        0.0000
   1323 TI         12.9105   -8.3989   23.0316 Ti      1  UNL1        0.0000
   1324 TI         14.7728    1.2851   17.1706 Ti      1  UNL1        0.0000
   1325 TI         13.0836    2.1615   15.2123 Ti      1  UNL1        0.0000
   1326 TI         14.3995   -9.5524   24.9940 Ti      1  UNL1        0.0000
   1327 TI          9.8046   -6.3972   23.0436 Ti      1  UNL1        0.0000
   1328 TI         17.6582   -0.9732   17.1146 Ti      1  UNL1        0.0000
   1329 H          14.9859   -5.7140   20.5307 H       1  UNL1        0.0000
   1330 H          11.3257  -11.3982   20.8554 H       1  UNL1        0.0000
   1331 H          16.4019    4.0834   19.3826 H       1  UNL1        0.0000
   1332 H           8.3593   -1.0780   24.7702 H       1  UNL1        0.0000
   1333 H          19.2113   -6.1446   15.5786 H       1  UNL1        0.0000
   1334 H           4.6161   -6.7266   24.6290 H       1  UNL1        0.0000
   1335 H          23.0337   -0.5213   15.4179 H       1  UNL1        0.0000
   1336 H          14.6460  -13.7084   24.6987 H       1  UNL1        0.0000
   1337 H           9.1876    0.7623   15.5079 H       1  UNL1        0.0000
   1338 H          16.1099   -3.7546   19.4325 H       1  UNL1        0.0000
   1339 H          11.3645   -3.4264   20.8490 H       1  UNL1        0.0000
   1340 H          23.6533   -9.1810   20.6849 H       1  UNL1        0.0000
   1341 H           9.2062   -6.7283   26.7017 H       1  UNL1        0.0000
   1342 H          18.3280   -0.5595   13.4347 H       1  UNL1        0.0000
   1343 H          11.7885   -6.7244   24.6004 H       1  UNL1        0.0000
   1344 H          15.7014   -0.4653   15.5731 H       1  UNL1        0.0000
   1345 H          15.0018   -9.7443   19.5426 H       1  UNL1        0.0000
   1346 H          12.6201    2.4371   20.6825 H       1  UNL1        0.0000
   1347 H           5.3127   -3.3068   22.5603 H       1  UNL1        0.0000
   1348 H          22.2268   -3.9471   17.7243 H       1  UNL1        0.0000
   1349 H           7.7620   -4.9539   19.4351 H       1  UNL1        0.0000
   1350 H          10.1628    4.3445   17.7130 H       1  UNL1        0.0000
   1351 H          11.3042   -1.2322   19.9299 H       1  UNL1        0.0000
   1352 H          12.7098   -0.4640   19.2218 H       1  UNL1        0.0000
   1353 H          12.9108    5.3805   15.9927 H       1  UNL1        0.0000
   1354 H          19.1916   -8.1958   16.7837 H       1  UNL1        0.0000
   1355 H          18.8111   -7.6786   23.4117 H       1  UNL1        0.0000
   1356 H          17.4683   -8.4900   24.1903 H       1  UNL1        0.0000
   1357 H           5.2684    1.6562   19.7185 H       1  UNL1        0.0000
   1358 H          19.8987    0.9169   18.9207 H       1  UNL1        0.0000
   1359 H          19.4300   -1.9870   21.9855 H       1  UNL1        0.0000
   1360 H          18.9223   -1.7268   20.3247 H       1  UNL1        0.0000
   1361 H          18.3936  -12.3075   22.9731 H       1  UNL1        0.0000
   1362 H          17.0574  -11.3191   23.5404 H       1  UNL1        0.0000
   1363 C          20.0590   -2.5059   18.0994 C.3     1  UNL1        0.0000
   1364 C           7.5116   -4.7417   22.1346 C.3     1  UNL1        0.0000
   1365 C          15.2778   -9.9748   22.1508 C.2     1  UNL1        0.0000
   1366 C          12.3131    2.7086   18.0511 C.3     1  UNL1        0.0000
   1367 C          20.9009   -3.0722   19.1636 C.ar    1  UNL1        0.0000
   1368 C           6.6113   -4.1722   21.0946 C.ar    1  UNL1        0.0000
   1369 C          16.1243  -10.6300   21.1402 C.2     1  UNL1        0.0000
   1370 C          11.4716    3.3317   19.1114 C.ar    1  UNL1        0.0000
   1371 C          20.6088   -2.8804   20.5537 C.ar    1  UNL1        0.0000
   1372 C           6.8888   -4.3768   19.7257 C.ar    1  UNL1        0.0000
   1373 C          17.2166  -11.4884   21.4961 C.3     1  UNL1        0.0000
   1374 C          10.3869    4.1654   18.7608 C.ar    1  UNL1        0.0000
   1375 C          11.7782    3.0848   20.4453 C.ar    1  UNL1        0.0000
   1376 C          15.8390  -10.3992   19.7744 C.3     1  UNL1        0.0000
   1377 C          22.0398   -3.8218   18.7883 C.ar    1  UNL1        0.0000
   1378 C           5.4987   -3.4412   21.4965 C.ar    1  UNL1        0.0000
   1379 C          14.3884   -2.4809   19.5277 C.ar    1  UNL1        0.0000
   1380 C          13.1043   -4.6680   20.7374 C.ar    1  UNL1        0.0000
   1381 C          18.1567    2.8520   19.3944 C.ar    1  UNL1        0.0000
   1382 C           9.5516  -10.2002   20.8302 C.2     1  UNL1        0.0000
   1383 C          19.3094   -6.0674   13.4432 C.2     1  UNL1        0.0000
   1384 C          12.9938    6.2694   13.4958 C.ar    1  UNL1        0.0000
   1385 C          18.2365   -8.0879   26.6908 C.ar    1  UNL1        0.0000
   1386 C           4.6382   -6.6410   26.7659 C.ar    1  UNL1        0.0000
   1387 C          15.1018   -1.4004   18.8258 C.3     1  UNL1        0.0000
   1388 C          12.4164   -5.8168   21.3976 C.3     1  UNL1        0.0000
   1389 C          17.4828    1.8084   18.6135 C.3     1  UNL1        0.0000
   1390 C          10.1978   -9.1043   21.6044 C.2     1  UNL1        0.0000
   1391 C          19.3568   -4.5783   13.4423 C.2     1  UNL1        0.0000
   1392 C          12.9811    4.8014   13.4537 C.3     1  UNL1        0.0000
   1393 C          16.9507   -8.8022   26.7260 C.3     1  UNL1        0.0000
   1394 C           5.9336   -5.9000   26.7920 C.3     1  UNL1        0.0000
   1395 C          13.0208   -2.3577   19.9368 C.ar    1  UNL1        0.0000
   1396 C          14.4586   -4.7808   20.3559 C.ar    1  UNL1        0.0000
   1397 C          17.4340    4.0232   19.7195 C.ar    1  UNL1        0.0000
   1398 C          10.2901  -11.3381   20.5252 C.3     1  UNL1        0.0000
   1399 C          19.2298   -6.7313   14.6622 C.3     1  UNL1        0.0000
   1400 C           8.3377   -0.4901   25.6847 C.ar    1  UNL1        0.0000
   1401 C          23.5576   -0.2399   14.5077 C.ar    1  UNL1        0.0000
   1402 C           4.0910   -7.0053   25.5409 C.ar    1  UNL1        0.0000
   1403 C           3.5180    2.7252   19.8094 C.ar    1  UNL1        0.0000
   1404 C          24.2072  -10.0802   20.4314 C.3     1  UNL1        0.0000
   1405 C          15.0736   -3.6964   19.7569 C.ar    1  UNL1        0.0000
   1406 C          12.4046   -3.4834   20.5328 C.ar    1  UNL1        0.0000
   1407 C          18.8879   -7.7388   25.4629 C.ar    1  UNL1        0.0000
   1408 C           8.7384    0.4700   14.5634 C.ar    1  UNL1        0.0000
   1409 C          14.5897  -14.2489   25.6392 C.3     1  UNL1        0.0000
   1410 C          19.1585   -8.1423   14.7294 C.2     1  UNL1        0.0000
   1411 N          12.3082   -1.1956   19.8068 N.pl3   1  UNL1        0.0000
   1412 N          19.0354   -8.7453   15.9488 N.2     1  UNL1        0.0000
   1413 N          18.4132   -8.1127   24.2349 N.pl3   1  UNL1        0.0000
   1414 N           4.2682    1.6064   19.5708 N.pl3   1  UNL1        0.0000
   1415 N          19.5070   -2.2113   21.0019 N.pl3   1  UNL1        0.0000
   1416 N          17.5385  -11.8005   22.7848 N.3     1  UNL1        0.0000
   1417 O          19.0386   -1.7870   18.4291 O.3     1  UNL1        0.0000
   1418 O           8.4582   -5.5161   21.7587 O.3     1  UNL1        0.0000
   1419 O          15.5601  -10.1538   23.4005 O.2     1  UNL1        0.0000
   1420 O          11.9733    2.8722   16.8310 O.3     1  UNL1        0.0000
   1421 O          13.3420    2.0336   18.4254 O.3     1  UNL1        0.0000
   1422 O          14.2973   -9.2386   21.7709 O.2     1  UNL1        0.0000
   1423 O          20.3682   -2.7379   16.8716 O.3     1  UNL1        0.0000
   1424 O           7.2891   -4.4228   23.3581 O.3     1  UNL1        0.0000
   1425 O          17.6903   -2.4282   16.0905 O.3     1  UNL1        0.0000
   1426 O           9.9450   -4.8499   24.0337 O.3     1  UNL1        0.0000
   1427 O          19.0948   -0.4063   16.0091 O.3     1  UNL1        0.0000
   1428 O           8.4658   -6.8039   24.2328 O.3     1  UNL1        0.0000
   1429 O          12.9175   -9.9692   24.0344 O.3     1  UNL1        0.0000
   1430 O          14.6153    2.7490   16.1265 O.3     1  UNL1        0.0000
   1431 O          14.1470   -7.8523   24.2739 O.3     1  UNL1        0.0000
   1432 O          13.4665    0.5761   15.9819 O.3     1  UNL1        0.0000
   1433 O          16.3443   -1.5842   18.5281 O.3     1  UNL1        0.0000
   1434 O          11.1578   -5.7416   21.5931 O.3     1  UNL1        0.0000
   1435 O          18.1140    0.7506   18.2856 O.3     1  UNL1        0.0000
   1436 O           9.4684   -8.1337   21.9943 O.2     1  UNL1        0.0000
   1437 O          14.5925  -11.4432   25.7215 O.2     1  UNL1        0.0000
   1438 O          12.8967    4.1366   14.5441 O.3     1  UNL1        0.0000
   1439 O          16.3777   -9.1129   25.6213 O.3     1  UNL1        0.0000
   1440 O          11.2136    1.7352   14.5302 O.3     1  UNL1        0.0000
   1441 O          16.2503    1.9984   18.2675 O.3     1  UNL1        0.0000
   1442 O          11.4472   -9.1930   21.8475 O.2     1  UNL1        0.0000
   1443 O          14.4729   -0.3255   18.5246 O.3     1  UNL1        0.0000
   1444 O          13.1430   -6.8151   21.7377 O.3     1  UNL1        0.0000
   1445 O          21.1757   -1.6224   14.4625 O.3     1  UNL1        0.0000
   1446 O           6.4285   -5.4928   25.6933 O.3     1  UNL1        0.0000
   1447 O          19.4156   -3.9745   14.5582 O.2     1  UNL1        0.0000
   1448 O           8.3333   -3.2489   25.7222 O.3     1  UNL1        0.0000
   1449 O          16.1556    0.0622   16.2548 O.3     1  UNL1        0.0000
   1450 O          11.4149   -7.3029   23.9114 O.3     1  UNL1        0.0000
   1451 O          18.5599   -1.5055   13.4283 O.3     1  UNL1        0.0000
   1452 O           9.0335   -5.7723   26.7789 O.3     1  UNL1        0.0000
   1453 TI          3.6283  -12.5626   38.3610 Ti      1  UNL1        0.0000
   1454 TI         14.6298   -9.4794   28.6694 Ti      1  UNL1        0.0000
   1455 TI          8.1742  -15.8636   36.4437 Ti      1  UNL1        0.0000
   1456 TI         10.0366   -6.1797   30.5827 Ti      1  UNL1        0.0000
   1457 TI          8.3474   -5.3032   28.6244 Ti      1  UNL1        0.0000
   1458 TI          9.6632  -17.0171   38.4061 Ti      1  UNL1        0.0000
   1459 TI          5.0683  -13.8619   36.4557 Ti      1  UNL1        0.0000
   1460 TI         12.9220   -8.4379   30.5267 Ti      1  UNL1        0.0000
   1461 H          10.2496  -13.1787   33.9428 H       1  UNL1        0.0000
   1462 H           6.5894  -18.8629   34.2675 H       1  UNL1        0.0000
   1463 H          11.6657   -3.3813   32.7947 H       1  UNL1        0.0000
   1464 H           3.6231   -8.5428   38.1823 H      15  UNL15       0.0000
   1465 H          14.4751  -13.6094   28.9907 H       1  UNL1        0.0000
   1466 H          -0.1201  -14.1913   38.0411 H       1  UNL1        0.0000
   1467 H          18.2974   -7.9861   28.8300 H       1  UNL1        0.0000
   1468 H           9.9097  -21.1731   38.1108 H      16  UNL16       0.0000
   1469 H           4.4514   -6.7025   28.9200 H       1  UNL1        0.0000
   1470 H          11.3736  -11.2193   32.8446 H       1  UNL1        0.0000
   1471 H           6.6283  -10.8911   34.2611 H       1  UNL1        0.0000
   1472 H          18.9170  -16.6457   34.0970 H       1  UNL1        0.0000
   1473 H           4.4699  -14.1931   40.1138 H       1  UNL1        0.0000
   1474 H          13.5917   -8.0242   26.8468 H       1  UNL1        0.0000
   1475 H           7.0523  -14.1892   38.0125 H       1  UNL1        0.0000
   1476 H          10.9651   -7.9301   28.9852 H       1  UNL1        0.0000
   1477 H          10.2655  -17.2090   32.9548 H       1  UNL1        0.0000
   1478 H           7.8839   -5.0276   34.0946 H       1  UNL1        0.0000
   1479 H           0.5764  -10.7715   35.9724 H       1  UNL1        0.0000
   1480 H          17.4905  -11.4118   31.1364 H       1  UNL1        0.0000
   1481 H           3.0258  -12.4186   32.8472 H       1  UNL1        0.0000
   1482 H           5.4265   -3.1203   31.1251 H       1  UNL1        0.0000
   1483 H           6.5679   -8.6969   33.3420 H       1  UNL1        0.0000
   1484 H           7.9735   -7.9288   32.6339 H       1  UNL1        0.0000
   1485 H           8.1745   -2.0842   29.4048 H       1  UNL1        0.0000
   1486 H          14.4553  -15.6605   30.1958 H       1  UNL1        0.0000
   1487 H          14.0748  -15.1433   36.8238 H       1  UNL1        0.0000
   1488 H          12.7320  -15.9547   37.6024 H       1  UNL1        0.0000
   1489 H           0.5321   -5.8085   33.1306 H       1  UNL1        0.0000
   1490 H          15.1624   -6.5478   32.3328 H       1  UNL1        0.0000
   1491 H          14.6937   -9.4517   35.3976 H       1  UNL1        0.0000
   1492 H          14.1860   -9.1916   33.7368 H       1  UNL1        0.0000
   1493 H          13.6573  -19.7722   36.3852 H       1  UNL1        0.0000
   1494 H          12.3211  -18.7838   36.9525 H       1  UNL1        0.0000
   1495 C          15.3227   -9.9707   31.5115 C.3     1  UNL1        0.0000
   1496 C           2.7753  -12.2064   35.5467 C.3     1  UNL1        0.0000
   1497 C          10.5415  -17.4395   35.5629 C.2     1  UNL1        0.0000
   1498 C           7.5768   -4.7561   31.4632 C.3     1  UNL1        0.0000
   1499 C          16.1647  -10.5369   32.5757 C.ar    1  UNL1        0.0000
   1500 C           1.8750  -11.6370   34.5067 C.ar    1  UNL1        0.0000
   1501 C          11.3880  -18.0947   34.5524 C.2     1  UNL1        0.0000
   1502 C           6.7354   -4.1330   32.5235 C.ar    1  UNL1        0.0000
   1503 C          15.8726  -10.3451   33.9658 C.ar    1  UNL1        0.0000
   1504 C           2.1526  -11.8416   33.1378 C.ar    1  UNL1        0.0000
   1505 C          12.4803  -18.9532   34.9082 C.3     1  UNL1        0.0000
   1506 C           5.6507   -3.2994   32.1729 C.ar    1  UNL1        0.0000
   1507 C           7.0420   -4.3799   33.8574 C.ar    1  UNL1        0.0000
   1508 C          11.1027  -17.8640   33.1865 C.3     1  UNL1        0.0000
   1509 C          17.3035  -11.2866   32.2004 C.ar    1  UNL1        0.0000
   1510 C           0.7624  -10.9059   34.9086 C.ar    1  UNL1        0.0000
   1511 C           9.6521   -9.9456   32.9398 C.ar    1  UNL1        0.0000
   1512 C           8.3680  -12.1327   34.1495 C.ar    1  UNL1        0.0000
   1513 C          13.4204   -4.6127   32.8065 C.ar    1  UNL1        0.0000
   1514 C           4.8153  -17.6650   34.2423 C.2     1  UNL1        0.0000
   1515 C          14.5731  -13.5322   26.8553 C.2     1  UNL1        0.0000
   1516 C           8.2575   -1.1953   26.9079 C.ar    1  UNL1        0.0000
   1517 C          13.5003  -15.5526   40.1030 C.2     1  UNL1        0.0000
   1518 C          -0.0981  -14.1057   40.1780 C.2     1  UNL1        0.0000
   1519 C          10.3656   -8.8652   32.2379 C.3     1  UNL1        0.0000
   1520 C           7.6801  -13.2815   34.8097 C.3     1  UNL1        0.0000
   1521 C          12.7465   -5.6563   32.0256 C.3     1  UNL1        0.0000
   1522 C           5.4615  -16.5691   35.0165 C.2     1  UNL1        0.0000
   1523 C          14.6206  -12.0430   26.8544 C.2     1  UNL1        0.0000
   1524 C           8.2449   -2.6633   26.8658 C.3     1  UNL1        0.0000
   1525 C          12.2144  -16.2669   40.1381 C.2     1  UNL1        0.0000
   1526 C           1.1973  -13.3648   40.2041 C.2     1  UNL1        0.0000
   1527 C           8.2845   -9.8224   33.3489 C.ar    1  UNL1        0.0000
   1528 C           9.7224  -12.2455   33.7680 C.ar    1  UNL1        0.0000
   1529 C          12.6977   -3.4416   33.1317 C.ar    1  UNL1        0.0000
   1530 C           5.5539  -18.8028   33.9373 C.3     1  UNL1        0.0000
   1531 C          14.4936  -14.1961   28.0743 C.3     1  UNL1        0.0000
   1532 C           3.6014   -7.9548   39.0968 C.2    15  UNL15       0.0000
   1533 C          18.8213   -7.7046   27.9198 C.ar    1  UNL1        0.0000
   1534 C          -0.6453  -14.4700   38.9530 C.2     1  UNL1        0.0000
   1535 C          -1.2183   -4.7395   33.2215 C.ar    1  UNL1        0.0000
   1536 C          19.4710  -17.5450   33.8435 C.3     1  UNL1        0.0000
   1537 C          10.3373  -11.1611   33.1690 C.ar    1  UNL1        0.0000
   1538 C           7.6684  -10.9482   33.9449 C.ar    1  UNL1        0.0000
   1539 C          14.1516  -15.2035   38.8750 C.2     1  UNL1        0.0000
   1540 C           4.0021   -6.9947   27.9755 C.ar    1  UNL1        0.0000
   1541 C           9.8535  -21.7136   39.0513 C.3    10  UNL10       0.0000
   1542 C          14.4222  -15.6071   28.1415 C.2     1  UNL1        0.0000
   1543 N           7.5720   -8.6603   33.2189 N.pl3   1  UNL1        0.0000
   1544 N          14.2992  -16.2101   29.3609 N.2     1  UNL1        0.0000
   1545 N          13.6769  -15.5774   37.6471 N.pl3   1  UNL1        0.0000
   1546 N          -0.4680   -5.8583   32.9830 N.pl3   1  UNL1        0.0000
   1547 N          14.7708   -9.6760   34.4140 N.pl3   1  UNL1        0.0000
   1548 N          12.8022  -19.2653   36.1969 N.3     1  UNL1        0.0000
   1549 O          14.3023   -9.2517   31.8413 O.3     1  UNL1        0.0000
   1550 O           3.7219  -12.9808   35.1708 O.3     1  UNL1        0.0000
   1551 O          10.8238  -17.6185   36.8126 O.2     1  UNL1        0.0000
   1552 O           7.2371   -4.5925   30.2431 O.3     1  UNL1        0.0000
   1553 O           8.6057   -5.4311   31.8375 O.3     1  UNL1        0.0000
   1554 O           9.5611  -16.7033   35.1830 O.2     1  UNL1        0.0000
   1555 O          15.6319  -10.2026   30.2837 O.3     1  UNL1        0.0000
   1556 O           2.5528  -11.8875   36.7702 O.3     1  UNL1        0.0000
   1557 O          12.9541   -9.8929   29.5026 O.3     1  UNL1        0.0000
   1558 O           5.2088  -12.3146   37.4458 O.3     1  UNL1        0.0000
   1559 O          14.3585   -7.8710   29.4212 O.3     1  UNL1        0.0000
   1560 O           3.7295  -14.2686   37.6449 O.3     1  UNL1        0.0000
   1561 O           8.1812  -17.4340   37.4465 O.3     1  UNL1        0.0000
   1562 O           9.8791   -4.7158   29.5386 O.3     1  UNL1        0.0000
   1563 O           9.4107  -15.3170   37.6860 O.3     1  UNL1        0.0000
   1564 O           8.7302   -6.8887   29.3940 O.3     1  UNL1        0.0000
   1565 O          11.6080   -9.0489   31.9402 O.3     1  UNL1        0.0000
   1566 O           6.4216  -13.2064   35.0052 O.3     1  UNL1        0.0000
   1567 O          13.3777   -6.7142   31.6977 O.3     1  UNL1        0.0000
   1568 O           4.7321  -15.5984   35.4064 O.2     1  UNL1        0.0000
   1569 O           9.8562  -18.9079   39.1336 O.3     1  UNL1        0.0000
   1570 O           8.1604   -3.3281   27.9563 O.3     1  UNL1        0.0000
   1571 O          11.6414  -16.5776   39.0334 O.2     1  UNL1        0.0000
   1572 O           6.4773   -5.7296   27.9423 O.3     1  UNL1        0.0000
   1573 O          11.5141   -5.4663   31.6796 O.3     1  UNL1        0.0000
   1574 O           6.7109  -16.6577   35.2596 O.2     1  UNL1        0.0000
   1575 O           9.7366   -7.7903   31.9367 O.3     1  UNL1        0.0000
   1576 O           8.4068  -14.2798   35.1498 O.3     1  UNL1        0.0000
   1577 O          16.4395   -9.0871   27.8746 O.3     1  UNL1        0.0000
   1578 O           1.6923  -12.9575   39.1054 O.2     1  UNL1        0.0000
   1579 O          14.6793  -11.4392   27.9703 O.2     1  UNL1        0.0000
   1580 O           3.5970  -10.7137   39.1343 O.3     1  UNL1        0.0000
   1581 O          11.4194   -7.4025   29.6669 O.3     1  UNL1        0.0000
   1582 O           6.6786  -14.7676   37.3235 O.3     1  UNL1        0.0000
   1583 O          13.8236   -8.9702   26.8404 O.3     1  UNL1        0.0000
   1584 O           4.2973  -13.2370   40.1910 O.3     1  UNL1        0.0000
   1585 TI          6.9016   17.5069   11.5368 Ti      1  UNL1        0.0000
   1586 TI         17.9031   20.5901    1.8452 Ti      1  UNL1        0.0000
   1587 TI         11.4475   14.2059    9.6194 Ti      1  UNL1        0.0000
   1588 TI         13.3098   23.8898    3.7585 Ti      1  UNL1        0.0000
   1589 TI         11.6206   24.7663    1.8002 Ti      1  UNL1        0.0000
   1590 TI         12.9365   13.0524   11.5819 Ti      1  UNL1        0.0000
   1591 TI          8.3415   16.2076    9.6315 Ti      1  UNL1        0.0000
   1592 TI         16.1952   21.6316    3.7025 Ti      1  UNL1        0.0000
   1593 H          13.5228   16.8908    7.1186 H       1  UNL1        0.0000
   1594 H           9.8627   11.2066    7.4433 H       1  UNL1        0.0000
   1595 H          14.9389   26.6882    5.9705 H       1  UNL1        0.0000
   1596 H           6.8963   21.5267   11.3581 H       1  UNL1        0.0000
   1597 H          17.7483   16.4601    2.1665 H       1  UNL1        0.0000
   1598 H           3.1531   15.8782   11.2168 H       1  UNL1        0.0000
   1599 H          21.5706   22.0834    2.0058 H      17  UNL17       0.0000
   1600 H          13.1829    8.8964   11.2866 H       1  UNL1        0.0000
   1601 H           7.7246   23.3670    2.0958 H       5  UNL5        0.0000
   1602 H          14.6469   18.8502    6.0204 H       1  UNL1        0.0000
   1603 H           9.9015   19.1784    7.4369 H       1  UNL1        0.0000
   1604 H          22.1902   13.4238    7.2727 H       1  UNL1        0.0000
   1605 H           7.7432   15.8764   13.2896 H       1  UNL1        0.0000
   1606 H          16.8650   22.0453    0.0226 H       1  UNL1        0.0000
   1607 H          10.3255   15.8803   11.1883 H       1  UNL1        0.0000
   1608 H          14.2384   22.1394    2.1610 H       1  UNL1        0.0000
   1609 H          13.5388   12.8605    6.1305 H       1  UNL1        0.0000
   1610 H          11.1571   25.0419    7.2704 H       1  UNL1        0.0000
   1611 H           3.8497   19.2980    9.1482 H       1  UNL1        0.0000
   1612 H          20.7637   18.6577    4.3122 H       1  UNL1        0.0000
   1613 H           6.2990   17.6509    6.0229 H       1  UNL1        0.0000
   1614 H           8.6998   26.9492    4.3009 H       1  UNL1        0.0000
   1615 H           9.8412   21.3726    6.5178 H       1  UNL1        0.0000
   1616 H          11.2468   22.1407    5.8096 H       1  UNL1        0.0000
   1617 H          11.4478   27.9853    2.5806 H       1  UNL1        0.0000
   1618 H          17.7286   14.4090    3.3716 H       1  UNL1        0.0000
   1619 H          17.3481   14.9262    9.9996 H       1  UNL1        0.0000
   1620 H          16.0053   14.1148   10.7782 H       1  UNL1        0.0000
   1621 H           3.8053   24.2610    6.3064 H       1  UNL1        0.0000
   1622 H          18.4357   23.5217    5.5086 H       1  UNL1        0.0000
   1623 H          17.9670   20.6178    8.5733 H       1  UNL1        0.0000
   1624 H          17.4593   20.8779    6.9126 H       1  UNL1        0.0000
   1625 H          16.9305   10.2973    9.5610 H       1  UNL1        0.0000
   1626 H          15.5944   11.2857   10.1283 H       1  UNL1        0.0000
   1627 C          18.5959   20.0988    4.6873 C.3     1  UNL1        0.0000
   1628 C           6.0486   17.8631    8.7224 C.3     1  UNL1        0.0000
   1629 C          13.8148   12.6300    8.7387 C.3     1  UNL1        0.0000
   1630 C          10.8500   25.3134    4.6390 C.3     1  UNL1        0.0000
   1631 C          19.4379   19.5326    5.7515 C.ar    1  UNL1        0.0000
   1632 C           5.1483   18.4325    7.6825 C.ar    1  UNL1        0.0000
   1633 C          14.6613   11.9748    7.7281 C.ar    1  UNL1        0.0000
   1634 C          10.0086   25.9365    5.6993 C.ar    1  UNL1        0.0000
   1635 C          19.1458   19.7244    7.1416 C.ar    1  UNL1        0.0000
   1636 C           5.4258   18.2279    6.3136 C.ar    1  UNL1        0.0000
   1637 C          15.7536   11.1163    8.0840 C.ar    1  UNL1        0.0000
   1638 C           8.9239   26.7701    5.3487 C.ar    1  UNL1        0.0000
   1639 C          10.3152   25.6896    7.0332 C.ar    1  UNL1        0.0000
   1640 C          14.3759   12.2055    6.3623 C.ar    1  UNL1        0.0000
   1641 C          20.5767   18.7829    5.3762 C.ar    1  UNL1        0.0000
   1642 C           4.0356   19.1636    8.0844 C.ar    1  UNL1        0.0000
   1643 C          12.9254   20.1239    6.1156 C.ar    1  UNL1        0.0000
   1644 C          11.6413   17.9368    7.3253 C.ar    1  UNL1        0.0000
   1645 C          16.6937   25.4568    5.9823 C.ar    1  UNL1        0.0000
   1646 C           8.0885   12.4045    7.4181 C.ar    1  UNL1        0.0000
   1647 C          17.8463   16.5373    0.0311 C.2     1  UNL1        0.0000
   1648 C          11.5308   28.8742    0.0837 C.2     1  UNL1        0.0000
   1649 C          16.7735   14.5169   13.2787 C.ar    1  UNL1        0.0000
   1650 C           3.1752   15.9638   13.3538 C.ar    1  UNL1        0.0000
   1651 C          13.6388   21.2043    5.4137 C.3     1  UNL1        0.0000
   1652 C          10.9534   16.7880    7.9855 C.3     1  UNL1        0.0000
   1653 C          16.0197   24.4132    5.2014 C.3     1  UNL1        0.0000
   1654 C           8.7348   13.5004    8.1923 C.3     1  UNL1        0.0000
   1655 C          17.8938   18.0265    0.0302 C.2     1  UNL1        0.0000
   1656 C          11.5181   27.4062    0.0416 C.2     1  UNL1        0.0000
   1657 C          15.4876   13.8026   13.3139 C.3     1  UNL1        0.0000
   1658 C           4.4705   16.7047   13.3799 C.3     1  UNL1        0.0000
   1659 C          11.5578   20.2471    6.5247 C.ar    1  UNL1        0.0000
   1660 C          12.9956   17.8240    6.9438 C.ar    1  UNL1        0.0000
   1661 C          15.9709   26.6279    6.3074 C.ar    1  UNL1        0.0000
   1662 C           8.8271   11.2667    7.1130 C.ar    1  UNL1        0.0000
   1663 C          17.7668   15.8734    1.2500 C.2     1  UNL1        0.0000
   1664 C           6.8747   22.1147   12.2726 C.ar    1  UNL1        0.0000
   1665 C          22.0946   22.3649    1.0955 C.2    17  UNL17       0.0000
   1666 C           2.6279   15.5995   12.1288 C.ar    1  UNL1        0.0000
   1667 C           2.0550   25.3300    6.3973 C.ar    1  UNL1        0.0000
   1668 C          22.7442   12.5245    7.0193 C.ar    1  UNL1        0.0000
   1669 C          13.6106   18.9084    6.3447 C.ar    1  UNL1        0.0000
   1670 C          10.9416   19.1213    7.1206 C.ar    1  UNL1        0.0000
   1671 C          17.4249   14.8660   12.0508 C.ar    1  UNL1        0.0000
   1672 C           7.2754   23.0748    1.1513 C.2     5  UNL5        0.0000
   1673 C          13.1267    8.3559   12.2271 C.ar    1  UNL1        0.0000
   1674 C          17.6954   14.4624    1.3173 C.2     1  UNL1        0.0000
   1675 N          10.8452   21.4092    6.3947 N.pl3   1  UNL1        0.0000
   1676 N          17.5724   13.8594    2.5366 N.pl3   1  UNL1        0.0000
   1677 N          16.9502   14.4921   10.8228 N.pl3   1  UNL1        0.0000
   1678 N           2.8052   24.2112    6.1587 N.pl3   1  UNL1        0.0000
   1679 N          18.0440   20.3935    7.5898 N.pl3   1  UNL1        0.0000
   1680 N          16.0755   10.8042    9.3726 N.pl3   1  UNL1        0.0000
   1681 O          17.5756   20.8178    5.0170 O.3     1  UNL1        0.0000
   1682 O           6.9951   17.0887    8.3466 O.3     1  UNL1        0.0000
   1683 O          14.0971   12.4510    9.9884 O.3     1  UNL1        0.0000
   1684 O          10.5103   25.4770    3.4189 O.3     1  UNL1        0.0000
   1685 O          11.8790   24.6384    5.0133 O.3     1  UNL1        0.0000
   1686 O          12.8343   13.3662    8.3588 O.3     1  UNL1        0.0000
   1687 O          18.9051   19.8669    3.4595 O.3     1  UNL1        0.0000
   1688 O           5.8260   18.1820    9.9460 O.3     1  UNL1        0.0000
   1689 O          16.2273   20.1766    2.6784 O.3     1  UNL1        0.0000
   1690 O           8.4820   17.7549   10.6216 O.3     1  UNL1        0.0000
   1691 O          17.6318   22.1985    2.5970 O.3     1  UNL1        0.0000
   1692 O           7.0028   15.8009   10.8207 O.3     1  UNL1        0.0000
   1693 O          11.4545   12.6355   10.6223 O.3     1  UNL1        0.0000
   1694 O          13.1523   25.3537    2.7143 O.3     1  UNL1        0.0000
   1695 O          12.6840   14.7525   10.8618 O.3     1  UNL1        0.0000
   1696 O          12.0035   23.1808    2.5698 O.3     1  UNL1        0.0000
   1697 O          14.8812   21.0206    5.1160 O.3     1  UNL1        0.0000
   1698 O           9.6948   16.8631    8.1810 O.3     1  UNL1        0.0000
   1699 O          16.6509   23.3553    4.8735 O.3     1  UNL1        0.0000
   1700 O           8.0054   14.4711    8.5822 O.3     1  UNL1        0.0000
   1701 O          13.1294   11.1615   12.3094 O.3     1  UNL1        0.0000
   1702 O          11.4336   26.7414    1.1320 O.2     1  UNL1        0.0000
   1703 O          14.9146   13.4919   12.2092 O.3     1  UNL1        0.0000
   1704 O           9.7505   24.3399    1.1181 O.3     1  UNL1        0.0000
   1705 O          14.7873   24.6032    4.8554 O.3     1  UNL1        0.0000
   1706 O           9.9841   13.4118    8.4354 O.3     1  UNL1        0.0000
   1707 O          13.0099   22.2792    5.1125 O.3     1  UNL1        0.0000
   1708 O          11.6800   15.7897    8.3256 O.3     1  UNL1        0.0000
   1709 O          19.7127   20.9824    1.0504 O.3     1  UNL1        0.0000
   1710 O           4.9655   17.1120   12.2811 O.3     1  UNL1        0.0000
   1711 O          17.9526   18.6303    1.1461 O.2     1  UNL1        0.0000
   1712 O           6.8702   19.3558   12.3101 O.3     1  UNL1        0.0000
   1713 O          14.6926   22.6670    2.8426 O.3     1  UNL1        0.0000
   1714 O           9.9519   15.3019   10.4993 O.3     1  UNL1        0.0000
   1715 O          17.0969   21.0993    0.0162 O.3     1  UNL1        0.0000
   1716 O           7.5705   16.8325   13.3668 O.3     1  UNL1        0.0000
   1717 TI          2.1653   10.0422   24.9489 Ti      1  UNL1        0.0000
   1718 TI         13.1668   13.1253   15.2573 Ti      1  UNL1        0.0000
   1719 TI          6.7112    6.7412   23.0316 Ti      1  UNL1        0.0000
   1720 TI          8.5736   16.4251   17.1706 Ti      1  UNL1        0.0000
   1721 TI          6.8843   17.3015   15.2123 Ti      1  UNL1        0.0000
   1722 TI          8.2002    5.5877   24.9940 Ti      1  UNL1        0.0000
   1723 TI          3.6053    8.7429   23.0436 Ti      1  UNL1        0.0000
   1724 TI         11.4589   14.1668   17.1146 Ti      1  UNL1        0.0000
   1725 H           8.7866    9.4261   20.5307 H       1  UNL1        0.0000
   1726 H           5.1264    3.7419   20.8554 H       1  UNL1        0.0000
   1727 H          10.2027   19.2234   19.3826 H       1  UNL1        0.0000
   1728 H           2.1600   14.0620   24.7702 H       1  UNL1        0.0000
   1729 H          13.0120    8.9954   15.5786 H       1  UNL1        0.0000
   1730 H          -1.5832    8.4134   24.6290 H       1  UNL1        0.0000
   1731 H          16.8344   14.6187   15.4179 H       1  UNL1        0.0000
   1732 H           8.4467    1.4317   24.6987 H       1  UNL1        0.0000
   1733 H           2.9884   15.9023   15.5079 H       1  UNL1        0.0000
   1734 H           9.9106   11.3855   19.4325 H       1  UNL1        0.0000
   1735 H           5.1653   11.7137   20.8490 H       1  UNL1        0.0000
   1736 H          17.4540    5.9591   20.6849 H       1  UNL1        0.0000
   1737 H           3.0069    8.4117   26.7017 H       1  UNL1        0.0000
   1738 H          12.1287   14.5806   13.4347 H       1  UNL1        0.0000
   1739 H           5.5892    8.4156   24.6004 H       1  UNL1        0.0000
   1740 H           9.5021   14.6747   15.5731 H       1  UNL1        0.0000
   1741 H           8.8025    5.3957   19.5426 H       1  UNL1        0.0000
   1742 H           6.4208   17.5772   20.6825 H       1  UNL1        0.0000
   1743 H          -0.8866   11.8333   22.5603 H       1  UNL1        0.0000
   1744 H          16.0275   11.1929   17.7243 H       1  UNL1        0.0000
   1745 H           1.5627   10.1862   19.4351 H       1  UNL1        0.0000
   1746 H           3.9635   19.4845   17.7130 H       1  UNL1        0.0000
   1747 H           5.1049   13.9079   19.9299 H       1  UNL1        0.0000
   1748 H           6.5105   14.6760   19.2218 H       1  UNL1        0.0000
   1749 H           6.7115   20.5206   15.9927 H       1  UNL1        0.0000
   1750 H          12.9923    6.9443   16.7837 H       1  UNL1        0.0000
   1751 H          12.6118    7.4615   23.4117 H       1  UNL1        0.0000
   1752 H          11.2690    6.6501   24.1903 H       1  UNL1        0.0000
   1753 H          -0.9309   16.7963   19.7185 H       1  UNL1        0.0000
   1754 H          13.6994   16.0569   18.9207 H       1  UNL1        0.0000
   1755 H          13.2307   13.1531   21.9855 H       1  UNL1        0.0000
   1756 H          12.7230   13.4132   20.3247 H       1  UNL1        0.0000
   1757 H          12.1943    2.8326   22.9731 H       1  UNL1        0.0000
   1758 H          10.8581    3.8209   23.5404 H       1  UNL1        0.0000
   1759 C          13.8597   12.6341   18.0994 C.3     1  UNL1        0.0000
   1760 C           1.3123   10.3984   22.1346 C.3     1  UNL1        0.0000
   1761 C           9.0785    5.1652   22.1508 C.3     1  UNL1        0.0000
   1762 C           6.1138   17.8487   18.0511 C.3     1  UNL1        0.0000
   1763 C          14.7017   12.0679   19.1636 C.ar    1  UNL1        0.0000
   1764 C           0.4120   10.9678   21.0946 C.ar    1  UNL1        0.0000
   1765 C           9.9250    4.5100   21.1402 C.ar    1  UNL1        0.0000
   1766 C           5.2723   18.4717   19.1114 C.ar    1  UNL1        0.0000
   1767 C          14.4095   12.2597   20.5537 C.ar    1  UNL1        0.0000
   1768 C           0.6895   10.7632   19.7257 C.ar    1  UNL1        0.0000
   1769 C          11.0173    3.6516   21.4961 C.ar    1  UNL1        0.0000
   1770 C           4.1877   19.3054   18.7608 C.ar    1  UNL1        0.0000
   1771 C           5.5789   18.2249   20.4453 C.ar    1  UNL1        0.0000
   1772 C           9.6397    4.7408   19.7744 C.ar    1  UNL1        0.0000
   1773 C          15.8405   11.3182   18.7883 C.ar    1  UNL1        0.0000
   1774 C          -0.7006   11.6989   21.4965 C.ar    1  UNL1        0.0000
   1775 C           8.1891   12.6592   19.5277 C.ar    1  UNL1        0.0000
   1776 C           6.9050   10.4720   20.7374 C.ar    1  UNL1        0.0000
   1777 C          11.9574   17.9921   19.3944 C.ar    1  UNL1        0.0000
   1778 C           3.3523    4.9398   20.8302 C.ar    1  UNL1        0.0000
   1779 C          13.1101    9.0726   13.4432 C.ar    1  UNL1        0.0000
   1780 C           6.7945   21.4095   13.4958 C.ar    1  UNL1        0.0000
   1781 C          12.0372    7.0521   26.6908 C.ar    1  UNL1        0.0000
   1782 C          -1.5611    8.4991   26.7659 C.ar    1  UNL1        0.0000
   1783 C           8.9026   13.7396   18.8258 C.3     1  UNL1        0.0000
   1784 C           6.2171    9.3232   21.3976 C.3     1  UNL1        0.0000
   1785 C          11.2835   16.9484   18.6135 C.3     1  UNL1        0.0000
   1786 C           3.9985    6.0357   21.6044 C.3     1  UNL1        0.0000
   1787 C          13.1576   10.5618   13.4423 C.3     1  UNL1        0.0000
   1788 C           6.7818   19.9415   13.4537 C.3     1  UNL1        0.0000
   1789 C          10.7514    6.3378   26.7260 C.3     1  UNL1        0.0000
   1790 C          -0.2657    9.2400   26.7920 C.3     1  UNL1        0.0000
   1791 C           6.8215   12.7824   19.9368 C.ar    1  UNL1        0.0000
   1792 C           8.2593   10.3593   20.3559 C.ar    1  UNL1        0.0000
   1793 C          11.2347   19.1632   19.7195 C.ar    1  UNL1        0.0000
   1794 C           4.0909    3.8019   20.5252 C.ar    1  UNL1        0.0000
   1795 C          13.0305    8.4087   14.6622 C.ar    1  UNL1        0.0000
   1796 C           2.1384   14.6500   25.6847 C.ar    1  UNL1        0.0000
   1797 C          17.3583   14.9001   14.5077 C.ar    1  UNL1        0.0000
   1798 C          -2.1083    8.1348   25.5409 C.ar    1  UNL1        0.0000
   1799 C          -2.6813   17.8652   19.8094 C.ar    1  UNL1        0.0000
   1800 C          18.0079    5.0598   20.4314 C.ar    1  UNL1        0.0000
   1801 C           8.8743   11.4436   19.7569 C.ar    1  UNL1        0.0000
   1802 C           6.2053   11.6566   20.5328 C.ar    1  UNL1        0.0000
   1803 C          12.6886    7.4012   25.4629 C.ar    1  UNL1        0.0000
   1804 C           2.5391   15.6101   14.5634 C.ar    1  UNL1        0.0000
   1805 C           8.3905    0.8912   25.6392 C.ar    1  UNL1        0.0000
   1806 C          12.9592    6.9977   14.7294 C.ar    1  UNL1        0.0000
   1807 N           6.1089   13.9445   19.8068 N.pl3   1  UNL1        0.0000
   1808 N          12.8362    6.3947   15.9488 N.pl3   1  UNL1        0.0000
   1809 N          12.2139    7.0274   24.2349 N.pl3   1  UNL1        0.0000
   1810 N          -1.9310   16.7464   19.5708 N.pl3   1  UNL1        0.0000
   1811 N          13.3077   12.9288   21.0019 N.pl3   1  UNL1        0.0000
   1812 N          11.3392    3.3395   22.7848 N.pl3   1  UNL1        0.0000
   1813 O          12.8393   13.3531   18.4291 O.3     1  UNL1        0.0000
   1814 O           2.2589    9.6240   21.7587 O.3     1  UNL1        0.0000
   1815 O           9.3608    4.9863   23.4005 O.3     1  UNL1        0.0000
   1816 O           5.7740   18.0123   16.8310 O.3     1  UNL1        0.0000
   1817 O           7.1427   17.1736   18.4254 O.3     1  UNL1        0.0000
   1818 O           8.0981    5.9015   21.7709 O.3     1  UNL1        0.0000
   1819 O          14.1689   12.4022   16.8716 O.3     1  UNL1        0.0000
   1820 O           1.0898   10.7172   23.3581 O.3     1  UNL1        0.0000
   1821 O          11.4910   12.7119   16.0905 O.3     1  UNL1        0.0000
   1822 O           3.7457   10.2901   24.0337 O.3     1  UNL1        0.0000
   1823 O          12.8955   14.7338   16.0091 O.3     1  UNL1        0.0000
   1824 O           2.2665    8.3362   24.2328 O.3     1  UNL1        0.0000
   1825 O           6.7182    5.1708   24.0344 O.3     1  UNL1        0.0000
   1826 O           8.4160   17.8890   16.1265 O.3     1  UNL1        0.0000
   1827 O           7.9477    7.2878   24.2739 O.3     1  UNL1        0.0000
   1828 O           7.2672   15.7161   15.9819 O.3     1  UNL1        0.0000
   1829 O          10.1450   13.5559   18.5281 O.3     1  UNL1        0.0000
   1830 O           4.9585    9.3984   21.5931 O.3     1  UNL1        0.0000
   1831 O          11.9147   15.8906   18.2856 O.3     1  UNL1        0.0000
   1832 O           3.2691    7.0064   21.9943 O.3     1  UNL1        0.0000
   1833 O           8.3932    3.6968   25.7215 O.3     1  UNL1        0.0000
   1834 O           6.6974   19.2767   14.5441 O.3     1  UNL1        0.0000
   1835 O          10.1784    6.0272   25.6213 O.3     1  UNL1        0.0000
   1836 O           5.0143   16.8752   14.5302 O.3     1  UNL1        0.0000
   1837 O          10.0511   17.1385   18.2675 O.3     1  UNL1        0.0000
   1838 O           5.2479    5.9471   21.8475 O.3     1  UNL1        0.0000
   1839 O           8.2736   14.8145   18.5246 O.3     1  UNL1        0.0000
   1840 O           6.9437    8.3250   21.7377 O.3     1  UNL1        0.0000
   1841 O          14.9765   13.5176   14.4625 O.3     1  UNL1        0.0000
   1842 O           0.2292    9.6473   25.6933 O.3     1  UNL1        0.0000
   1843 O          13.2163   11.1656   14.5582 O.3     1  UNL1        0.0000
   1844 O           2.1340   11.8911   25.7222 O.3     1  UNL1        0.0000
   1845 O           9.9563   15.2023   16.2548 O.3     1  UNL1        0.0000
   1846 O           5.2156    7.8371   23.9114 O.3     1  UNL1        0.0000
   1847 O          12.3606   13.6346   13.4283 O.3     1  UNL1        0.0000
   1848 O           2.8342    9.3677   26.7789 O.3     1  UNL1        0.0000
   1849 TI         -2.5710    2.5775   38.3610 Ti      1  UNL1        0.0000
   1850 TI          8.4306    5.6606   28.6694 Ti      1  UNL1        0.0000
   1851 TI          1.9749   -0.7235   36.4437 Ti      1  UNL1        0.0000
   1852 TI          3.8373    8.9604   30.5827 Ti      1  UNL1        0.0000
   1853 TI          2.1481    9.8368   28.6244 Ti      1  UNL1        0.0000
   1854 TI          3.4639   -1.8770   38.4061 Ti      1  UNL1        0.0000
   1855 TI         -1.1310    1.2781   36.4557 Ti      1  UNL1        0.0000
   1856 TI          6.7227    6.7021   30.5267 Ti      1  UNL1        0.0000
   1857 H           4.0503    1.9614   33.9428 H       1  UNL1        0.0000
   1858 H           0.3901   -3.7228   34.2675 H       1  UNL1        0.0000
   1859 H           5.4664   11.7587   32.7947 H       1  UNL1        0.0000
   1860 H          -2.5762    6.5973   38.1823 H      18  UNL18       0.0000
   1861 H           8.2758    1.5307   28.9907 H       1  UNL1        0.0000
   1862 H          -6.3194    0.9487   38.0411 H       1  UNL1        0.0000
   1863 H          12.0981    7.1540   28.8300 H       1  UNL1        0.0000
   1864 H           3.7104   -6.0331   38.1108 H      15  UNL15       0.0000
   1865 H          -1.7479    8.4376   28.9200 H       1  UNL1        0.0000
   1866 H           5.1743    3.9207   32.8446 H       1  UNL1        0.0000
   1867 H           0.4290    4.2490   34.2611 H       1  UNL1        0.0000
   1868 H          12.7177   -1.5057   34.0970 H       1  UNL1        0.0000
   1869 H          -1.7294    0.9470   40.1138 H       1  UNL1        0.0000
   1870 H           7.3924    7.1158   26.8468 H       1  UNL1        0.0000
   1871 H           0.8530    0.9509   38.0125 H       1  UNL1        0.0000
   1872 H           4.7658    7.2100   28.9852 H       1  UNL1        0.0000
   1873 H           4.0663   -2.0690   32.9548 H       1  UNL1        0.0000
   1874 H           1.6846   10.1125   34.0946 H       1  UNL1        0.0000
   1875 H          -5.6229    4.3685   35.9724 H       1  UNL1        0.0000
   1876 H          11.2912    3.7282   31.1364 H       1  UNL1        0.0000
   1877 H          -3.1735    2.7214   32.8472 H       1  UNL1        0.0000
   1878 H          -0.7728   12.0198   31.1251 H       1  UNL1        0.0000
   1879 H           0.3686    6.4431   33.3420 H       1  UNL1        0.0000
   1880 H           1.7742    7.2113   32.6339 H       1  UNL1        0.0000
   1881 H           1.9752   13.0558   29.4048 H       1  UNL1        0.0000
   1882 H           8.2561   -0.5204   30.1958 H       1  UNL1        0.0000
   1883 H           7.8755   -0.0033   36.8238 H       1  UNL1        0.0000
   1884 H           6.5327   -0.8146   37.6024 H       1  UNL1        0.0000
   1885 H          -5.6672    9.3316   33.1306 H       1  UNL1        0.0000
   1886 H           8.9632    8.5922   32.3328 H       1  UNL1        0.0000
   1887 H           8.4944    5.6883   35.3976 H       1  UNL1        0.0000
   1888 H           7.9868    5.9485   33.7368 H       1  UNL1        0.0000
   1889 H           7.4580   -4.6322   36.3852 H       1  UNL1        0.0000
   1890 H           6.1219   -3.6438   36.9525 H       1  UNL1        0.0000
   1891 C           9.1234    5.1694   31.5115 C.3     1  UNL1        0.0000
   1892 C          -3.4240    2.9337   35.5467 C.3     1  UNL1        0.0000
   1893 C           4.3423   -2.2995   35.5629 C.3     1  UNL1        0.0000
   1894 C           1.3775   10.3839   31.4632 C.3     1  UNL1        0.0000
   1895 C           9.9654    4.6032   32.5757 C.ar    1  UNL1        0.0000
   1896 C          -4.3243    3.5031   34.5067 C.ar    1  UNL1        0.0000
   1897 C           5.1888   -2.9547   34.5524 C.ar    1  UNL1        0.0000
   1898 C           0.5361   11.0070   32.5235 C.ar    1  UNL1        0.0000
   1899 C           9.6733    4.7950   33.9658 C.ar    1  UNL1        0.0000
   1900 C          -4.0467    3.2985   33.1378 C.ar    1  UNL1        0.0000
   1901 C           6.2811   -3.8131   34.9082 C.ar    1  UNL1        0.0000
   1902 C          -0.5486   11.8407   32.1729 C.ar    1  UNL1        0.0000
   1903 C           0.8427   10.7601   33.8574 C.ar    1  UNL1        0.0000
   1904 C           4.9034   -2.7239   33.1865 C.ar    1  UNL1        0.0000
   1905 C          11.1042    3.8535   32.2004 C.ar    1  UNL1        0.0000
   1906 C          -5.4369    4.2341   34.9086 C.ar    1  UNL1        0.0000
   1907 C           3.4529    5.1945   32.9398 C.ar    1  UNL1        0.0000
   1908 C           2.1687    3.0073   34.1495 C.ar    1  UNL1        0.0000
   1909 C           7.2212   10.5274   32.8065 C.ar    1  UNL1        0.0000
   1910 C          -1.3840   -2.5249   34.2423 C.ar    1  UNL1        0.0000
   1911 C           8.3738    1.6079   26.8553 C.ar    1  UNL1        0.0000
   1912 C           2.0583   13.9447   26.9079 C.ar    1  UNL1        0.0000
   1913 C           7.3010   -0.4126   40.1030 C.2     1  UNL1        0.0000
   1914 C          -6.2974    1.0344   40.1780 C.2     1  UNL1        0.0000
   1915 C           4.1663    6.2749   32.2379 C.3     1  UNL1        0.0000
   1916 C           1.4808    1.8585   34.8097 C.3     1  UNL1        0.0000
   1917 C           6.5472    9.4837   32.0256 C.3     1  UNL1        0.0000
   1918 C          -0.7377   -1.4290   35.0165 C.3     1  UNL1        0.0000
   1919 C           8.4213    3.0971   26.8544 C.3     1  UNL1        0.0000
   1920 C           2.0456   12.4767   26.8658 C.3     1  UNL1        0.0000
   1921 C           6.0151   -1.1269   40.1381 C.2     1  UNL1        0.0000
   1922 C          -5.0020    1.7753   40.2041 C.2     1  UNL1        0.0000
   1923 C           2.0852    5.3176   33.3489 C.ar    1  UNL1        0.0000
   1924 C           3.5231    2.8946   33.7680 C.ar    1  UNL1        0.0000
   1925 C           6.4984   11.6985   33.1317 C.ar    1  UNL1        0.0000
   1926 C          -0.6454   -3.6628   33.9373 C.ar    1  UNL1        0.0000
   1927 C           8.2943    0.9440   28.0743 C.ar    1  UNL1        0.0000
   1928 C          -2.5979    7.1852   39.0968 C.2    18  UNL18       0.0000
   1929 C          12.6220    7.4354   27.9198 C.ar    1  UNL1        0.0000
   1930 C          -6.8446    0.6700   38.9530 C.2     1  UNL1        0.0000
   1931 C          -7.4175   10.4005   33.2215 C.ar    1  UNL1        0.0000
   1932 C          13.2717   -2.4049   33.8435 C.ar    1  UNL1        0.0000
   1933 C           4.1380    3.9789   33.1690 C.ar    1  UNL1        0.0000
   1934 C           1.4691    4.1919   33.9449 C.ar    1  UNL1        0.0000
   1935 C           7.9524   -0.0635   38.8750 C.2     1  UNL1        0.0000
   1936 C          -2.1971    8.1454   27.9755 C.ar    1  UNL1        0.0000
   1937 C           3.6542   -6.5736   39.0513 C.2    15  UNL15       0.0000
   1938 C           8.2229   -0.4670   28.1415 C.ar    1  UNL1        0.0000
   1939 N           1.3727    6.4797   33.2189 N.pl3   1  UNL1        0.0000
   1940 N           8.0999   -1.0700   29.3609 N.pl3   1  UNL1        0.0000
   1941 N           7.4776   -0.4374   37.6471 N.pl3   1  UNL1        0.0000
   1942 N          -6.6673    9.2817   32.9830 N.pl3   1  UNL1        0.0000
   1943 N           8.5715    5.4641   34.4140 N.pl3   1  UNL1        0.0000
   1944 N           6.6029   -4.1252   36.1969 N.pl3   1  UNL1        0.0000
   1945 O           8.1030    5.8883   31.8413 O.3     1  UNL1        0.0000
   1946 O          -2.4774    2.1593   35.1708 O.3     1  UNL1        0.0000
   1947 O           4.6245   -2.4785   36.8126 O.3     1  UNL1        0.0000
   1948 O           1.0378   10.5476   30.2431 O.3     1  UNL1        0.0000
   1949 O           2.4065    9.7089   31.8375 O.3     1  UNL1        0.0000
   1950 O           3.3618   -1.5632   35.1830 O.3     1  UNL1        0.0000
   1951 O           9.4326    4.9374   30.2837 O.3     1  UNL1        0.0000
   1952 O          -3.6465    3.2525   36.7702 O.3     1  UNL1        0.0000
   1953 O           6.7548    5.2471   29.5026 O.3     1  UNL1        0.0000
   1954 O          -0.9905    2.8254   37.4458 O.3     1  UNL1        0.0000
   1955 O           8.1593    7.2691   29.4212 O.3     1  UNL1        0.0000
   1956 O          -2.4697    0.8715   37.6449 O.3     1  UNL1        0.0000
   1957 O           1.9819   -2.2939   37.4465 O.3     1  UNL1        0.0000
   1958 O           3.6798   10.4243   29.5386 O.3     1  UNL1        0.0000
   1959 O           3.2114   -0.1770   37.6860 O.3     1  UNL1        0.0000
   1960 O           2.5309    8.2514   29.3940 O.3     1  UNL1        0.0000
   1961 O           5.4087    6.0911   31.9402 O.3     1  UNL1        0.0000
   1962 O           0.2223    1.9337   35.0052 O.3     1  UNL1        0.0000
   1963 O           7.1784    8.4259   31.6977 O.3     1  UNL1        0.0000
   1964 O          -1.4672   -0.4584   35.4064 O.3     1  UNL1        0.0000
   1965 O           3.6569   -3.7679   39.1336 O.3     1  UNL1        0.0000
   1966 O           1.9611   11.8120   27.9563 O.3     1  UNL1        0.0000
   1967 O           5.4421   -1.4376   39.0334 O.2     1  UNL1        0.0000
   1968 O           0.2780    9.4105   27.9423 O.3     1  UNL1        0.0000
   1969 O           5.3148    9.6738   31.6796 O.3     1  UNL1        0.0000
   1970 O           0.5116   -1.5177   35.2596 O.3     1  UNL1        0.0000
   1971 O           3.5373    7.3498   31.9367 O.3     1  UNL1        0.0000
   1972 O           2.2075    0.8603   35.1498 O.3     1  UNL1        0.0000
   1973 O          10.2402    6.0529   27.8746 O.3     1  UNL1        0.0000
   1974 O          -4.5070    2.1826   39.1054 O.2     1  UNL1        0.0000
   1975 O           8.4801    3.7009   27.9703 O.3     1  UNL1        0.0000
   1976 O          -2.6023    4.4264   39.1343 O.3     1  UNL1        0.0000
   1977 O           5.2201    7.7375   29.6669 O.3     1  UNL1        0.0000
   1978 O           0.4794    0.3724   37.3235 O.3     1  UNL1        0.0000
   1979 O           7.6243    6.1698   26.8404 O.3     1  UNL1        0.0000
   1980 O          -1.9020    1.9030   40.1910 O.3     1  UNL1        0.0000
   1981 TI          0.7023   32.6470   11.5368 Ti      1  UNL1        0.0000
   1982 TI         11.7038   35.7301    1.8452 Ti      1  UNL1        0.0000
   1983 TI          5.2482   29.3460    9.6194 Ti      1  UNL1        0.0000
   1984 TI          7.1105   39.0299    3.7585 Ti      1  UNL1        0.0000
   1985 TI          5.4213   39.9063    1.8002 Ti      1  UNL1        0.0000
   1986 TI          6.7372   28.1925   11.5819 Ti      1  UNL1        0.0000
   1987 TI          2.1423   31.3476    9.6315 Ti      1  UNL1        0.0000
   1988 TI          9.9959   36.7716    3.7025 Ti      1  UNL1        0.0000
   1989 H           7.3236   32.0309    7.1186 H       1  UNL1        0.0000
   1990 H           3.6634   26.3467    7.4433 H       1  UNL1        0.0000
   1991 H           8.7396   41.8282    5.9705 H       1  UNL1        0.0000
   1992 H           0.6970   36.6668   11.3581 H       1  UNL1        0.0000
   1993 H          11.5490   31.6002    2.1665 H       1  UNL1        0.0000
   1994 H          -3.0462   31.0182   11.2168 H       1  UNL1        0.0000
   1995 H          15.3714   37.2235    2.0058 H      19  UNL19       0.0000
   1996 H           6.9836   24.0364   11.2866 H       1  UNL1        0.0000
   1997 H           1.5253   38.5071    2.0958 H       8  UNL8        0.0000
   1998 H           8.4476   33.9902    6.0204 H       1  UNL1        0.0000
   1999 H           3.7022   34.3185    7.4369 H       1  UNL1        0.0000
   2000 H          15.9909   28.5638    7.2727 H       1  UNL1        0.0000
   2001 H           1.5439   31.0165   13.2896 H       1  UNL1        0.0000
   2002 H          10.6657   37.1853    0.0226 H       1  UNL1        0.0000
   2003 H           4.1262   31.0204   11.1883 H       1  UNL1        0.0000
   2004 H           8.0391   37.2795    2.1610 H       1  UNL1        0.0000
   2005 H           7.3395   28.0005    6.1305 H       1  UNL1        0.0000
   2006 H           4.9578   40.1820    7.2704 H       1  UNL1        0.0000
   2007 H          -2.3496   34.4380    9.1482 H       1  UNL1        0.0000
   2008 H          14.5645   33.7977    4.3122 H       1  UNL1        0.0000
   2009 H           0.0997   32.7909    6.0229 H       1  UNL1        0.0000
   2010 H           2.5005   42.0893    4.3009 H       1  UNL1        0.0000
   2011 H           3.6419   36.5126    6.5178 H       1  UNL1        0.0000
   2012 H           5.0475   37.2808    5.8096 H       1  UNL1        0.0000
   2013 H           5.2485   43.1253    2.5806 H      11  UNL11       0.0000
   2014 H          11.5293   29.5491    3.3716 H       1  UNL1        0.0000
   2015 H          11.1488   30.0662    9.9996 H       1  UNL1        0.0000
   2016 H           9.8060   29.2549   10.7782 H       1  UNL1        0.0000
   2017 H          -2.3939   39.4011    6.3064 H       1  UNL1        0.0000
   2018 H          12.2364   38.6617    5.5086 H       1  UNL1        0.0000
   2019 H          11.7677   35.7578    8.5733 H       1  UNL1        0.0000
   2020 H          11.2600   36.0180    6.9126 H       1  UNL1        0.0000
   2021 H          10.7313   25.4373    9.5610 H       1  UNL1        0.0000
   2022 H           9.3951   26.4257   10.1283 H       1  UNL1        0.0000
   2023 C          12.3967   35.2389    4.6873 C.3     1  UNL1        0.0000
   2024 C          -0.1507   33.0032    8.7224 C.3     1  UNL1        0.0000
   2025 C           7.6155   27.7700    8.7387 C.3     1  UNL1        0.0000
   2026 C           4.6508   40.4534    4.6390 C.2     1  UNL1        0.0000
   2027 C          13.2386   34.6727    5.7515 C.ar    1  UNL1        0.0000
   2028 C          -1.0510   33.5726    7.6825 C.ar    1  UNL1        0.0000
   2029 C           8.4620   27.1148    7.7281 C.ar    1  UNL1        0.0000
   2030 C           3.8093   41.0765    5.6993 C.2     1  UNL1        0.0000
   2031 C          12.9465   34.8644    7.1416 C.ar    1  UNL1        0.0000
   2032 C          -0.7735   33.3680    6.3136 C.ar    1  UNL1        0.0000
   2033 C           9.5543   26.2564    8.0840 C.ar    1  UNL1        0.0000
   2034 C           2.7246   41.9102    5.3487 C.3     1  UNL1        0.0000
   2035 C           4.1159   40.8296    7.0332 C.3     1  UNL1        0.0000
   2036 C           8.1767   27.3456    6.3623 C.ar    1  UNL1        0.0000
   2037 C          14.3775   33.9230    5.3762 C.ar    1  UNL1        0.0000
   2038 C          -2.1637   34.3036    8.0844 C.ar    1  UNL1        0.0000
   2039 C           6.7261   35.2640    6.1156 C.ar    1  UNL1        0.0000
   2040 C           5.4420   33.0768    7.3253 C.ar    1  UNL1        0.0000
   2041 C          10.4944   40.5969    5.9823 C.2     1  UNL1        0.0000
   2042 C           1.8892   27.5446    7.4181 C.ar    1  UNL1        0.0000
   2043 C          11.6470   31.6774    0.0311 C.2     1  UNL1        0.0000
   2044 C           5.3315   44.0142    0.0837 C.3     1  UNL1        0.0000
   2045 C          10.5742   29.6569   13.2787 C.ar    1  UNL1        0.0000
   2046 C          -3.0241   31.1039   13.3538 C.ar    1  UNL1        0.0000
   2047 C           7.4395   36.3444    5.4137 C.3     1  UNL1        0.0000
   2048 C           4.7541   31.9280    7.9855 C.3     1  UNL1        0.0000
   2049 C           9.8204   39.5532    5.2014 C.2     1  UNL1        0.0000
   2050 C           2.5355   28.6405    8.1923 C.3     1  UNL1        0.0000
   2051 C          11.6945   33.1665    0.0302 C.2     1  UNL1        0.0000
   2052 C           5.3188   42.5462    0.0416 C.3     1  UNL1        0.0000
   2053 C           9.2883   28.9426   13.3139 C.3     1  UNL1        0.0000
   2054 C          -1.7287   31.8448   13.3799 C.3     1  UNL1        0.0000
   2055 C           5.3585   35.3871    6.5247 C.ar    1  UNL1        0.0000
   2056 C           6.7963   32.9641    6.9438 C.ar    1  UNL1        0.0000
   2057 C           9.7717   41.7680    6.3074 C.3     1  UNL1        0.0000
   2058 C           2.6278   26.4067    7.1130 C.ar    1  UNL1        0.0000
   2059 C          11.5675   31.0135    1.2500 C.2     1  UNL1        0.0000
   2060 C           0.6754   37.2547   12.2726 C.3     1  UNL1        0.0000
   2061 C          15.8953   37.5049    1.0955 C.2    19  UNL19       0.0000
   2062 C          -3.5713   30.7395   12.1288 C.ar    1  UNL1        0.0000
   2063 C          -4.1443   40.4700    6.3973 C.3     1  UNL1        0.0000
   2064 C          16.5449   27.6646    7.0193 C.ar    1  UNL1        0.0000
   2065 C           7.4113   34.0484    6.3447 C.ar    1  UNL1        0.0000
   2066 C           4.7423   34.2614    7.1206 C.ar    1  UNL1        0.0000
   2067 C          11.2256   30.0060   12.0508 C.ar    1  UNL1        0.0000
   2068 C           1.0761   38.2149    1.1513 C.2     8  UNL8        0.0000
   2069 C           6.9274   23.4959   12.2271 C.ar    1  UNL1        0.0000
   2070 C          11.4962   29.6025    1.3173 C.2     1  UNL1        0.0000
   2071 N           4.6459   36.5492    6.3947 N.pl3   1  UNL1        0.0000
   2072 N          11.3731   28.9995    2.5366 N.pl3   1  UNL1        0.0000
   2073 N          10.7509   29.6321   10.8228 N.pl3   1  UNL1        0.0000
   2074 N          -3.3941   39.3512    6.1587 N.3     1  UNL1        0.0000
   2075 N          11.8447   35.5336    7.5898 N.pl3   1  UNL1        0.0000
   2076 N           9.8762   25.9443    9.3726 N.pl3   1  UNL1        0.0000
   2077 O          11.3763   35.9578    5.0170 O.3     1  UNL1        0.0000
   2078 O           0.7959   32.2288    8.3466 O.3     1  UNL1        0.0000
   2079 O           7.8978   27.5910    9.9884 O.3     1  UNL1        0.0000
   2080 O           4.3110   40.6171    3.4189 O.2     1  UNL1        0.0000
   2081 O           5.6797   39.7784    5.0133 O.2     1  UNL1        0.0000
   2082 O           6.6350   28.5063    8.3588 O.3     1  UNL1        0.0000
   2083 O          12.7059   35.0069    3.4595 O.3     1  UNL1        0.0000
   2084 O          -0.3733   33.3220    9.9460 O.3     1  UNL1        0.0000
   2085 O          10.0280   35.3166    2.6784 O.3     1  UNL1        0.0000
   2086 O           2.2827   32.8949   10.6216 O.3     1  UNL1        0.0000
   2087 O          11.4325   37.3386    2.5970 O.3     1  UNL1        0.0000
   2088 O           0.8035   30.9409   10.8207 O.3     1  UNL1        0.0000
   2089 O           5.2552   27.7756   10.6223 O.3     1  UNL1        0.0000
   2090 O           6.9530   40.4938    2.7143 O.3     1  UNL1        0.0000
   2091 O           6.4847   29.8925   10.8618 O.3     1  UNL1        0.0000
   2092 O           5.8042   38.3209    2.5698 O.3     1  UNL1        0.0000
   2093 O           8.6819   36.1606    5.1160 O.3     1  UNL1        0.0000
   2094 O           3.4955   32.0032    8.1810 O.3     1  UNL1        0.0000
   2095 O          10.4516   38.4954    4.8735 O.2     1  UNL1        0.0000
   2096 O           1.8061   29.6111    8.5822 O.3     1  UNL1        0.0000
   2097 O           6.9302   26.3016   12.3094 O.3     1  UNL1        0.0000
   2098 O           5.2344   41.8815    1.1320 O.3     1  UNL1        0.0000
   2099 O           8.7153   28.6319   12.2092 O.3     1  UNL1        0.0000
   2100 O           3.5512   39.4800    1.1181 O.3     1  UNL1        0.0000
   2101 O           8.5880   39.7433    4.8554 O.2     1  UNL1        0.0000
   2102 O           3.7849   28.5518    8.4354 O.3     1  UNL1        0.0000
   2103 O           6.8106   37.4193    5.1125 O.3     1  UNL1        0.0000
   2104 O           5.4807   30.9298    8.3256 O.3     1  UNL1        0.0000
   2105 O          13.5134   36.1224    1.0504 O.3     1  UNL1        0.0000
   2106 O          -1.2338   32.2521   12.2811 O.3     1  UNL1        0.0000
   2107 O          11.7533   33.7704    1.1461 O.2     1  UNL1        0.0000
   2108 O           0.6709   34.4959   12.3101 O.2     1  UNL1        0.0000
   2109 O           8.4933   37.8070    2.8426 O.3     1  UNL1        0.0000
   2110 O           3.7526   30.4419   10.4993 O.3     1  UNL1        0.0000
   2111 O          10.8976   36.2393    0.0162 O.3     1  UNL1        0.0000
   2112 O           1.3712   31.9725   13.3668 O.3     1  UNL1        0.0000
   2113 TI         -4.0340   25.1822   24.9489 Ti      1  UNL1        0.0000
   2114 TI          6.9675   28.2654   15.2573 Ti      1  UNL1        0.0000
   2115 TI          0.5119   21.8812   23.0316 Ti      1  UNL1        0.0000
   2116 TI          2.3743   31.5652   17.1706 Ti      1  UNL1        0.0000
   2117 TI          0.6850   32.4416   15.2123 Ti      1  UNL1        0.0000
   2118 TI          2.0009   20.7277   24.9940 Ti      1  UNL1        0.0000
   2119 TI         -2.5940   23.8829   23.0436 Ti      1  UNL1        0.0000
   2120 TI          5.2597   29.3069   17.1146 Ti      1  UNL1        0.0000
   2121 H           2.5873   24.5661   20.5307 H       1  UNL1        0.0000
   2122 H          -1.0729   18.8819   20.8554 H       1  UNL1        0.0000
   2123 H           4.0034   34.3635   19.3826 H       1  UNL1        0.0000
   2124 H          -4.0392   29.2021   24.7702 H       1  UNL1        0.0000
   2125 H           6.8128   24.1355   15.5786 H       1  UNL1        0.0000
   2126 H          -7.7825   23.5535   24.6290 H       1  UNL1        0.0000
   2127 H          10.6351   29.7588   15.4179 H       1  UNL1        0.0000
   2128 H           2.2474   16.5717   24.6987 H       1  UNL1        0.0000
   2129 H          -3.2109   31.0424   15.5079 H       1  UNL1        0.0000
   2130 H           3.7113   26.5255   19.4325 H       1  UNL1        0.0000
   2131 H          -1.0340   26.8537   20.8490 H       1  UNL1        0.0000
   2132 H          11.2547   21.0991   20.6849 H       1  UNL1        0.0000
   2133 H          -3.1924   23.5518   26.7017 H       1  UNL1        0.0000
   2134 H           5.9294   29.7206   13.4347 H       1  UNL1        0.0000
   2135 H          -0.6101   23.5557   24.6004 H       1  UNL1        0.0000
   2136 H           3.3028   29.8148   15.5731 H       1  UNL1        0.0000
   2137 H           2.6032   20.5358   19.5426 H       1  UNL1        0.0000
   2138 H           0.2215   32.7172   20.6825 H       1  UNL1        0.0000
   2139 H          -7.0859   26.9733   22.5603 H       1  UNL1        0.0000
   2140 H           9.8282   26.3330   17.7243 H       1  UNL1        0.0000
   2141 H          -4.6365   25.3262   19.4351 H       1  UNL1        0.0000
   2142 H          -2.2358   34.6246   17.7130 H       1  UNL1        0.0000
   2143 H          -1.0944   29.0479   19.9299 H       1  UNL1        0.0000
   2144 H           0.3112   29.8161   19.2218 H       1  UNL1        0.0000
   2145 H           0.5122   35.6606   15.9927 H      12  UNL12       0.0000
   2146 H           6.7930   22.0843   16.7837 H       1  UNL1        0.0000
   2147 H           6.4125   22.6015   23.4117 H       1  UNL1        0.0000
   2148 H           5.0697   21.7901   24.1903 H       1  UNL1        0.0000
   2149 H          -7.1302   31.9363   19.7185 H       1  UNL1        0.0000
   2150 H           7.5001   31.1970   18.9207 H       1  UNL1        0.0000
   2151 H           7.0314   28.2931   21.9855 H       1  UNL1        0.0000
   2152 H           6.5237   28.5533   20.3247 H       1  UNL1        0.0000
   2153 H           5.9950   17.9726   22.9731 H       1  UNL1        0.0000
   2154 H           4.6588   18.9610   23.5404 H       1  UNL1        0.0000
   2155 C           7.6604   27.7742   18.0994 C.3     1  UNL1        0.0000
   2156 C          -4.8870   25.5384   22.1346 C.3     1  UNL1        0.0000
   2157 C           2.8792   20.3053   22.1508 C.3     1  UNL1        0.0000
   2158 C          -0.0855   32.9887   18.0511 C.2     1  UNL1        0.0000
   2159 C           8.5024   27.2079   19.1636 C.ar    1  UNL1        0.0000
   2160 C          -5.7873   26.1079   21.0946 C.ar    1  UNL1        0.0000
   2161 C           3.7257   19.6501   21.1402 C.ar    1  UNL1        0.0000
   2162 C          -0.9269   33.6118   19.1114 C.2     1  UNL1        0.0000
   2163 C           8.2103   27.3997   20.5537 C.ar    1  UNL1        0.0000
   2164 C          -5.5097   25.9033   19.7257 C.ar    1  UNL1        0.0000
   2165 C           4.8180   18.7917   21.4961 C.ar    1  UNL1        0.0000
   2166 C          -2.0116   34.4455   18.7608 C.3     1  UNL1        0.0000
   2167 C          -0.6204   33.3649   20.4453 C.3     1  UNL1        0.0000
   2168 C           3.4404   19.8809   19.7744 C.ar    1  UNL1        0.0000
   2169 C           9.6412   26.4582   18.7883 C.ar    1  UNL1        0.0000
   2170 C          -6.8999   26.8389   21.4965 C.ar    1  UNL1        0.0000
   2171 C           1.9898   27.7992   19.5277 C.ar    1  UNL1        0.0000
   2172 C           0.7057   25.6121   20.7374 C.ar    1  UNL1        0.0000
   2173 C           5.7581   33.1321   19.3944 C.2     1  UNL1        0.0000
   2174 C          -2.8470   20.0799   20.8302 C.ar    1  UNL1        0.0000
   2175 C           6.9108   24.2127   13.4432 C.ar    1  UNL1        0.0000
   2176 C           0.5952   36.5495   13.4958 C.2     1  UNL1        0.0000
   2177 C           5.8380   22.1922   26.6908 C.ar    1  UNL1        0.0000
   2178 C          -7.7604   23.6391   26.7659 C.ar    1  UNL1        0.0000
   2179 C           2.7033   28.8796   18.8258 C.3     1  UNL1        0.0000
   2180 C           0.0178   24.4633   21.3976 C.3     1  UNL1        0.0000
   2181 C           5.0842   32.0885   18.6135 C.2     1  UNL1        0.0000
   2182 C          -2.2008   21.1758   21.6044 C.3     1  UNL1        0.0000
   2183 C           6.9583   25.7018   13.4423 C.3     1  UNL1        0.0000
   2184 C           0.5826   35.0815   13.4537 C.2     1  UNL1        0.0000
   2185 C           4.5521   21.4779   26.7260 C.3     1  UNL1        0.0000
   2186 C          -6.4650   24.3801   26.7920 C.3     1  UNL1        0.0000
   2187 C           0.6222   27.9224   19.9368 C.ar    1  UNL1        0.0000
   2188 C           2.0600   25.4993   20.3559 C.ar    1  UNL1        0.0000
   2189 C           5.0354   34.3033   19.7195 C.3     1  UNL1        0.0000
   2190 C          -2.1084   18.9420   20.5252 C.ar    1  UNL1        0.0000
   2191 C           6.8312   23.5488   14.6622 C.ar    1  UNL1        0.0000
   2192 C          -4.0609   29.7900   25.6847 C.3     1  UNL1        0.0000
   2193 C          11.1590   30.0402   14.5077 C.ar    1  UNL1        0.0000
   2194 C          -8.3076   23.2748   25.5409 C.ar    1  UNL1        0.0000
   2195 C          -8.8806   33.0053   19.8094 C.3     1  UNL1        0.0000
   2196 C          11.8087   20.1999   20.4314 C.ar    1  UNL1        0.0000
   2197 C           2.6750   26.5837   19.7569 C.ar    1  UNL1        0.0000
   2198 C           0.0061   26.7967   20.5328 C.ar    1  UNL1        0.0000
   2199 C           6.4893   22.5413   25.4629 C.ar    1  UNL1        0.0000
   2200 C          -3.6602   30.7501   14.5634 C.ar    1  UNL1        0.0000
   2201 C           2.1912   16.0312   25.6392 C.ar    1  UNL1        0.0000
   2202 C           6.7599   22.1378   14.7294 C.ar    1  UNL1        0.0000
   2203 N          -0.0904   29.0845   19.8068 N.pl3   1  UNL1        0.0000
   2204 N           6.6369   21.5348   15.9488 N.pl3   1  UNL1        0.0000
   2205 N           6.0146   22.1674   24.2349 N.pl3   1  UNL1        0.0000
   2206 N          -8.1303   31.8865   19.5708 N.3     1  UNL1        0.0000
   2207 N           7.1085   28.0688   21.0019 N.pl3   1  UNL1        0.0000
   2208 N           5.1399   18.4796   22.7848 N.pl3   1  UNL1        0.0000
   2209 O           6.6400   28.4931   18.4291 O.3     1  UNL1        0.0000
   2210 O          -3.9404   24.7640   21.7587 O.3     1  UNL1        0.0000
   2211 O           3.1615   20.1263   23.4005 O.3     1  UNL1        0.0000
   2212 O          -0.4252   33.1523   16.8310 O.2     1  UNL1        0.0000
   2213 O           0.9434   32.3137   18.4254 O.2     1  UNL1        0.0000
   2214 O           1.8988   21.0415   21.7709 O.3     1  UNL1        0.0000
   2215 O           7.9696   27.5422   16.8716 O.3     1  UNL1        0.0000
   2216 O          -5.1095   25.8573   23.3581 O.3     1  UNL1        0.0000
   2217 O           5.2918   27.8519   16.0905 O.3     1  UNL1        0.0000
   2218 O          -2.4535   25.4302   24.0337 O.3     1  UNL1        0.0000
   2219 O           6.6962   29.8738   16.0091 O.3     1  UNL1        0.0000
   2220 O          -3.9328   23.4762   24.2328 O.3     1  UNL1        0.0000
   2221 O           0.5189   20.3109   24.0344 O.3     1  UNL1        0.0000
   2222 O           2.2167   33.0291   16.1265 O.3     1  UNL1        0.0000
   2223 O           1.7484   22.4278   24.2739 O.3     1  UNL1        0.0000
   2224 O           1.0679   30.8562   15.9819 O.3     1  UNL1        0.0000
   2225 O           3.9457   28.6959   18.5281 O.3     1  UNL1        0.0000
   2226 O          -1.2408   24.5385   21.5931 O.3     1  UNL1        0.0000
   2227 O           5.7154   31.0307   18.2856 O.2     1  UNL1        0.0000
   2228 O          -2.9302   22.1464   21.9943 O.3     1  UNL1        0.0000
   2229 O           2.1939   18.8369   25.7215 O.3     1  UNL1        0.0000
   2230 O           0.4981   34.4167   14.5441 O.2     1  UNL1        0.0000
   2231 O           3.9791   21.1672   25.6213 O.3     1  UNL1        0.0000
   2232 O          -1.1850   32.0153   14.5302 O.3     1  UNL1        0.0000
   2233 O           3.8518   32.2785   18.2675 O.2     1  UNL1        0.0000
   2234 O          -0.9514   21.0871   21.8475 O.3     1  UNL1        0.0000
   2235 O           2.0743   29.9546   18.5246 O.3     1  UNL1        0.0000
   2236 O           0.7445   23.4650   21.7377 O.3     1  UNL1        0.0000
   2237 O           8.7772   28.6577   14.4625 O.3     1  UNL1        0.0000
   2238 O          -5.9700   24.7873   25.6933 O.3     1  UNL1        0.0000
   2239 O           7.0170   26.3056   14.5582 O.3     1  UNL1        0.0000
   2240 O          -4.0653   27.0312   25.7222 O.2     1  UNL1        0.0000
   2241 O           3.7571   30.3423   16.2548 O.3     1  UNL1        0.0000
   2242 O          -0.9837   22.9772   23.9114 O.3     1  UNL1        0.0000
   2243 O           6.1613   28.7746   13.4283 O.3     1  UNL1        0.0000
   2244 O          -3.3651   24.5078   26.7789 O.3     1  UNL1        0.0000
   2245 TI         -8.7703   17.7175   38.3610 Ti      1  UNL1        0.0000
   2246 TI          2.2313   20.8007   28.6694 Ti      1  UNL1        0.0000
   2247 TI         -4.2243   14.4165   36.4437 Ti      1  UNL1        0.0000
   2248 TI         -2.3620   24.1004   30.5827 Ti      1  UNL1        0.0000
   2249 TI         -4.0512   24.9769   28.6244 Ti      1  UNL1        0.0000
   2250 TI         -2.7353   13.2630   38.4061 Ti      1  UNL1        0.0000
   2251 TI         -7.3303   16.4182   36.4557 Ti      1  UNL1        0.0000
   2252 TI          0.5234   21.8422   30.5267 Ti      1  UNL1        0.0000
   2253 H          -2.1490   17.1014   33.9428 H       1  UNL1        0.0000
   2254 H          -5.8091   11.4172   34.2675 H       1  UNL1        0.0000
   2255 H          -0.7329   26.8988   32.7947 H       1  UNL1        0.0000
   2256 H          -8.7755   21.7373   38.1823 H      20  UNL20       0.0000
   2257 H           2.0765   16.6707   28.9907 H       1  UNL1        0.0000
   2258 H         -12.5187   16.0888   38.0411 H       1  UNL1        0.0000
   2259 H           5.8988   22.2940   28.8300 H       1  UNL1        0.0000
   2260 H          -2.4889    9.1070   38.1108 H      18  UNL18       0.0000
   2261 H          -7.9472   23.5776   28.9200 H       1  UNL1        0.0000
   2262 H          -1.0250   19.0608   32.8446 H       1  UNL1        0.0000
   2263 H          -5.7703   19.3890   34.2611 H       1  UNL1        0.0000
   2264 H           6.5184   13.6344   34.0970 H       1  UNL1        0.0000
   2265 H          -7.9286   16.0870   40.1138 H       1  UNL1        0.0000
   2266 H           1.1932   22.2559   26.8468 H       1  UNL1        0.0000
   2267 H          -5.3463   16.0909   38.0125 H       1  UNL1        0.0000
   2268 H          -1.4335   22.3500   28.9852 H       1  UNL1        0.0000
   2269 H          -2.1330   13.0711   32.9548 H       1  UNL1        0.0000
   2270 H          -4.5147   25.2525   34.0946 H       1  UNL1        0.0000
   2271 H         -11.8222   19.5086   35.9724 H       1  UNL1        0.0000
   2272 H           5.0919   18.8683   31.1364 H       1  UNL1        0.0000
   2273 H          -9.3728   17.8615   32.8472 H       1  UNL1        0.0000
   2274 H          -6.9721   27.1598   31.1251 H       1  UNL1        0.0000
   2275 H          -5.8306   21.5832   33.3420 H       1  UNL1        0.0000
   2276 H          -4.4251   22.3513   32.6339 H       1  UNL1        0.0000
   2277 H          -4.2241   28.1959   29.4048 H      13  UNL13       0.0000
   2278 H           2.0568   14.6196   30.1958 H       1  UNL1        0.0000
   2279 H           1.6762   15.1368   36.8238 H       1  UNL1        0.0000
   2280 H           0.3335   14.3254   37.6024 H       1  UNL1        0.0000
   2281 H         -11.8665   24.4716   33.1306 H       1  UNL1        0.0000
   2282 H           2.7639   23.7323   32.3328 H       1  UNL1        0.0000
   2283 H           2.2952   20.8284   35.3976 H       1  UNL1        0.0000
   2284 H           1.7875   21.0885   33.7368 H       1  UNL1        0.0000
   2285 H           1.2587   10.5079   36.3852 H       1  UNL1        0.0000
   2286 H          -0.0774   11.4963   36.9525 H       1  UNL1        0.0000
   2287 C           2.9241   20.3094   31.5115 C.3     1  UNL1        0.0000
   2288 C          -9.6232   18.0737   35.5467 C.3     1  UNL1        0.0000
   2289 C          -1.8570   12.8405   35.5629 C.3     1  UNL1        0.0000
   2290 C          -4.8218   25.5240   31.4632 C.2     1  UNL1        0.0000
   2291 C           3.7661   19.7432   32.5757 C.ar    1  UNL1        0.0000
   2292 C         -10.5235   18.6431   34.5067 C.ar    1  UNL1        0.0000
   2293 C          -1.0105   12.1854   34.5524 C.ar    1  UNL1        0.0000
   2294 C          -5.6632   26.1471   32.5235 C.2     1  UNL1        0.0000
   2295 C           3.4740   19.9350   33.9658 C.ar    1  UNL1        0.0000
   2296 C         -10.2460   18.4385   33.1378 C.ar    1  UNL1        0.0000
   2297 C           0.0818   11.3269   34.9082 C.ar    1  UNL1        0.0000
   2298 C          -6.7479   26.9807   32.1729 C.3     1  UNL1        0.0000
   2299 C          -5.3566   25.9002   33.8574 C.3     1  UNL1        0.0000
   2300 C          -1.2959   12.4161   33.1865 C.ar    1  UNL1        0.0000
   2301 C           4.9049   18.9935   32.2004 C.ar    1  UNL1        0.0000
   2302 C         -11.6362   19.3742   34.9086 C.ar    1  UNL1        0.0000
   2303 C          -2.7464   20.3345   32.9398 C.ar    1  UNL1        0.0000
   2304 C          -4.0305   18.1474   34.1495 C.ar    1  UNL1        0.0000
   2305 C           1.0219   25.6674   32.8065 C.2     1  UNL1        0.0000
   2306 C          -7.5833   12.6151   34.2423 C.ar    1  UNL1        0.0000
   2307 C           2.1745   16.7479   26.8553 C.ar    1  UNL1        0.0000
   2308 C          -4.1410   29.0848   26.9079 C.2     1  UNL1        0.0000
   2309 C           1.1017   14.7275   40.1030 C.2     1  UNL1        0.0000
   2310 C         -12.4967   16.1744   40.1780 C.2     1  UNL1        0.0000
   2311 C          -2.0330   21.4149   32.2379 C.3     1  UNL1        0.0000
   2312 C          -4.7184   16.9986   34.8097 C.3     1  UNL1        0.0000
   2313 C           0.3479   24.6238   32.0256 C.2     1  UNL1        0.0000
   2314 C          -6.9370   13.7110   35.0165 C.3     1  UNL1        0.0000
   2315 C           2.2220   18.2371   26.8544 C.3     1  UNL1        0.0000
   2316 C          -4.1537   27.6168   26.8658 C.2     1  UNL1        0.0000
   2317 C          -0.1842   14.0132   40.1381 C.2     1  UNL1        0.0000
   2318 C         -11.2013   16.9153   40.2041 C.2     1  UNL1        0.0000
   2319 C          -4.1141   20.4577   33.3489 C.ar    1  UNL1        0.0000
   2320 C          -2.6762   18.0346   33.7680 C.ar    1  UNL1        0.0000
   2321 C           0.2991   26.8385   33.1317 C.3     1  UNL1        0.0000
   2322 C          -6.8447   11.4773   33.9373 C.ar    1  UNL1        0.0000
   2323 C           2.0950   16.0840   28.0743 C.ar    1  UNL1        0.0000
   2324 C          -8.7971   22.3253   39.0968 C.3    14  UNL14       0.0000
   2325 C           6.4227   22.5755   27.9198 C.ar    1  UNL1        0.0000
   2326 C         -13.0439   15.8101   38.9530 C.2     1  UNL1        0.0000
   2327 C         -13.6168   25.5406   33.2215 C.3     1  UNL1        0.0000
   2328 C           7.0724   12.7351   33.8435 C.ar    1  UNL1        0.0000
   2329 C          -2.0612   19.1190   33.1690 C.ar    1  UNL1        0.0000
   2330 C          -4.7302   19.3319   33.9449 C.ar    1  UNL1        0.0000
   2331 C           1.7531   15.0766   38.8750 C.2     1  UNL1        0.0000
   2332 C          -8.3964   23.2854   27.9755 C.ar    1  UNL1        0.0000
   2333 C          -2.5451    8.5665   39.0513 C.2    18  UNL18       0.0000
   2334 C           2.0236   14.6730   28.1415 C.ar    1  UNL1        0.0000
   2335 N          -4.8266   21.6198   33.2189 N.pl3   1  UNL1        0.0000
   2336 N           1.9006   14.0700   29.3609 N.pl3   1  UNL1        0.0000
   2337 N           1.2784   14.7027   37.6471 N.pl3   1  UNL1        0.0000
   2338 N         -12.8666   24.4218   32.9830 N.3     1  UNL1        0.0000
   2339 N           2.3722   20.6041   34.4140 N.pl3   1  UNL1        0.0000
   2340 N           0.4037   11.0148   36.1969 N.pl3   1  UNL1        0.0000
   2341 O           1.9037   21.0284   31.8413 O.3     1  UNL1        0.0000
   2342 O          -8.6767   17.2993   35.1708 O.3     1  UNL1        0.0000
   2343 O          -1.5747   12.6616   36.8126 O.3     1  UNL1        0.0000
   2344 O          -5.1615   25.6876   30.2431 O.2     1  UNL1        0.0000
   2345 O          -3.7928   24.8489   31.8375 O.2     1  UNL1        0.0000
   2346 O          -2.8375   13.5768   35.1830 O.3     1  UNL1        0.0000
   2347 O           3.2333   20.0775   30.2837 O.3     1  UNL1        0.0000
   2348 O          -9.8458   18.3926   36.7702 O.3     1  UNL1        0.0000
   2349 O           0.5555   20.3872   29.5026 O.3     1  UNL1        0.0000
   2350 O          -7.1898   17.9655   37.4458 O.3     1  UNL1        0.0000
   2351 O           1.9600   22.4091   29.4212 O.3     1  UNL1        0.0000
   2352 O          -8.6690   16.0115   37.6449 O.3     1  UNL1        0.0000
   2353 O          -4.2173   12.8461   37.4465 O.3     1  UNL1        0.0000
   2354 O          -2.5195   25.5643   29.5386 O.3     1  UNL1        0.0000
   2355 O          -2.9879   14.9631   37.6860 O.3     1  UNL1        0.0000
   2356 O          -3.6684   23.3914   29.3940 O.3     1  UNL1        0.0000
   2357 O          -0.7906   21.2312   31.9402 O.3     1  UNL1        0.0000
   2358 O          -5.9770   17.0737   35.0052 O.3     1  UNL1        0.0000
   2359 O           0.9791   23.5659   31.6977 O.2     1  UNL1        0.0000
   2360 O          -7.6664   14.6817   35.4064 O.3     1  UNL1        0.0000
   2361 O          -2.5424   11.3721   39.1336 O.3     1  UNL1        0.0000
   2362 O          -4.2382   26.9520   27.9563 O.2     1  UNL1        0.0000
   2363 O          -0.7572   13.7025   39.0334 O.2     1  UNL1        0.0000
   2364 O          -5.9213   24.5505   27.9423 O.3     1  UNL1        0.0000
   2365 O          -0.8845   24.8138   31.6796 O.2     1  UNL1        0.0000
   2366 O          -5.6877   13.6224   35.2596 O.3     1  UNL1        0.0000
   2367 O          -2.6619   22.4898   31.9367 O.3     1  UNL1        0.0000
   2368 O          -3.9918   16.0003   35.1498 O.3     1  UNL1        0.0000
   2369 O           4.0409   21.1930   27.8746 O.3     1  UNL1        0.0000
   2370 O         -10.7063   17.3226   39.1054 O.2     1  UNL1        0.0000
   2371 O           2.2808   18.8409   27.9703 O.3     1  UNL1        0.0000
   2372 O          -8.8016   19.5664   39.1343 O.3     1  UNL1        0.0000
   2373 O          -0.9792   22.8776   29.6669 O.3     1  UNL1        0.0000
   2374 O          -5.7199   15.5125   37.3235 O.3     1  UNL1        0.0000
   2375 O           1.4251   21.3099   26.8404 O.3     1  UNL1        0.0000
   2376 O          -8.1013   17.0431   40.1910 O.3     1  UNL1        0.0000
   2377 TI         29.1051    2.3669   11.5368 Ti      1  UNL1        0.0000
   2378 TI         40.1066    5.4500    1.8452 Ti      1  UNL1        0.0000
   2379 TI         33.6510   -0.9341    9.6194 Ti      1  UNL1        0.0000
   2380 TI         35.5134    8.7498    3.7585 Ti      1  UNL1        0.0000
   2381 TI         33.8241    9.6262    1.8002 Ti      1  UNL1        0.0000
   2382 TI         35.1400   -2.0876   11.5819 Ti      1  UNL1        0.0000
   2383 TI         30.5451    1.0675    9.6315 Ti      1  UNL1        0.0000
   2384 TI         38.3987    6.4915    3.7025 Ti      1  UNL1        0.0000
   2385 H          35.7264    1.7508    7.1186 H       1  UNL1        0.0000
   2386 H          32.0662   -3.9334    7.4433 H       1  UNL1        0.0000
   2387 H          37.1425   11.5481    5.9705 H       1  UNL1        0.0000
   2388 H          29.0999    6.3867   11.3581 H       1  UNL1        0.0000
   2389 H          39.9518    1.3201    2.1665 H       1  UNL1        0.0000
   2390 H          25.3566    0.7381   11.2168 H       1  UNL1        0.0000
   2391 H          43.7742    6.9434    2.0058 H      21  UNL21       0.0000
   2392 H          35.3865   -6.2437   11.2866 H       1  UNL1        0.0000
   2393 H          29.9282    8.2270    2.0958 H      14  UNL14       0.0000
   2394 H          36.8504    3.7101    6.0204 H       1  UNL1        0.0000
   2395 H          32.1051    4.0384    7.4369 H       1  UNL1        0.0000
   2396 H          44.3938   -1.7163    7.2727 H      22  UNL22       0.0000
   2397 H          29.9467    0.7364   13.2896 H       1  UNL1        0.0000
   2398 H          39.0685    6.9052    0.0226 H       1  UNL1        0.0000
   2399 H          32.5290    0.7403   11.1883 H       1  UNL1        0.0000
   2400 H          36.4419    6.9994    2.1610 H       1  UNL1        0.0000
   2401 H          35.7423   -2.2796    6.1305 H       1  UNL1        0.0000
   2402 H          33.3606    9.9019    7.2704 H       1  UNL1        0.0000
   2403 H          26.0532    4.1579    9.1482 H       1  UNL1        0.0000
   2404 H          42.9673    3.5176    4.3122 H       1  UNL1        0.0000
   2405 H          28.5025    2.5108    6.0229 H       1  UNL1        0.0000
   2406 H          30.9033   11.8092    4.3009 H       1  UNL1        0.0000
   2407 H          32.0447    6.2325    6.5178 H       1  UNL1        0.0000
   2408 H          33.4503    7.0007    5.8096 H       1  UNL1        0.0000
   2409 H          33.6513   12.8452    2.5806 H       1  UNL1        0.0000
   2410 H          39.9321   -0.7310    3.3716 H       1  UNL1        0.0000
   2411 H          39.5516   -0.2139    9.9996 H       1  UNL1        0.0000
   2412 H          38.2088   -1.0252   10.7782 H       1  UNL1        0.0000
   2413 H          26.0089    9.1210    6.3064 H       1  UNL1        0.0000
   2414 H          40.6392    8.3816    5.5086 H      15  UNL15       0.0000
   2415 H          40.1705    5.4777    8.5733 H       1  UNL1        0.0000
   2416 H          39.6628    5.7379    6.9126 H       1  UNL1        0.0000
   2417 H          39.1341   -4.8428    9.5610 H       1  UNL1        0.0000
   2418 H          37.7979   -3.8544   10.1283 H       1  UNL1        0.0000
   2419 C          40.7995    4.9588    4.6873 C.2     1  UNL1        0.0000
   2420 C          28.2521    2.7231    8.7224 C.3     1  UNL1        0.0000
   2421 C          36.0183   -2.5101    8.7387 C.2     1  UNL1        0.0000
   2422 C          33.0536   10.1733    4.6390 C.3     1  UNL1        0.0000
   2423 C          41.6415    4.3926    5.7515 C.2     1  UNL1        0.0000
   2424 C          27.3518    3.2925    7.6825 C.ar    1  UNL1        0.0000
   2425 C          36.8648   -3.1653    7.7281 C.2     1  UNL1        0.0000
   2426 C          32.2121   10.7964    5.6993 C.ar    1  UNL1        0.0000
   2427 C          41.3494    4.5844    7.1416 C.3     1  UNL1        0.0000
   2428 C          27.6293    3.0879    6.3136 C.ar    1  UNL1        0.0000
   2429 C          37.9571   -4.0237    8.0840 C.3     1  UNL1        0.0000
   2430 C          31.1275   11.6301    5.3487 C.ar    1  UNL1        0.0000
   2431 C          32.5187   10.5495    7.0332 C.ar    1  UNL1        0.0000
   2432 C          36.5795   -2.9345    6.3623 C.3     1  UNL1        0.0000
   2433 C          42.7803    3.6429    5.3762 C.3     1  UNL1        0.0000
   2434 C          26.2392    4.0235    8.0844 C.ar    1  UNL1        0.0000
   2435 C          35.1289    4.9839    6.1156 C.ar    1  UNL1        0.0000
   2436 C          33.8448    2.7967    7.3253 C.ar    1  UNL1        0.0000
   2437 C          38.8972   10.3168    5.9823 C.2     1  UNL1        0.0000
   2438 C          30.2921   -2.7355    7.4181 C.2     1  UNL1        0.0000
   2439 C          40.0499    1.3973    0.0311 C.2     1  UNL1        0.0000
   2440 C          33.7343   13.7341    0.0837 C.2     1  UNL1        0.0000
   2441 C          38.9770   -0.6232   13.2787 C.2     1  UNL1        0.0000
   2442 C          25.3787    0.8238   13.3538 C.ar    1  UNL1        0.0000
   2443 C          35.8424    6.0643    5.4137 C.3     1  UNL1        0.0000
   2444 C          33.1569    1.6479    7.9855 C.3     1  UNL1        0.0000
   2445 C          38.2233    9.2731    5.2014 C.2     1  UNL1        0.0000
   2446 C          30.9383   -1.6396    8.1923 C.2     1  UNL1        0.0000
   2447 C          40.0974    2.8865    0.0302 C.2     1  UNL1        0.0000
   2448 C          33.7217   12.2661    0.0416 C.2     1  UNL1        0.0000
   2449 C          37.6912   -1.3375   13.3139 C.2     1  UNL1        0.0000
   2450 C          26.6741    1.5647   13.3799 C.3     1  UNL1        0.0000
   2451 C          33.7613    5.1070    6.5247 C.ar    1  UNL1        0.0000
   2452 C          35.1991    2.6840    6.9438 C.ar    1  UNL1        0.0000
   2453 C          38.1745   11.4879    6.3074 C.2     1  UNL1        0.0000
   2454 C          31.0307   -3.8734    7.1130 C.3     1  UNL1        0.0000
   2455 C          39.9703    0.7334    1.2500 C.3     1  UNL1        0.0000
   2456 C          29.0782    6.9746   12.2726 C.ar    1  UNL1        0.0000
   2457 C          44.2981    7.2248    1.0955 C.3    16  UNL16       0.0000
   2458 C          24.8315    0.4594   12.1288 C.ar    1  UNL1        0.0000
   2459 C          24.2585   10.1899    6.3973 C.ar    1  UNL1        0.0000
   2460 C          44.9477   -2.6155    7.0193 C.3    17  UNL17       0.0000
   2461 C          35.8141    3.7683    6.3447 C.ar    1  UNL1        0.0000
   2462 C          33.1451    3.9813    7.1206 C.ar    1  UNL1        0.0000
   2463 C          39.6284   -0.2741   12.0508 C.3     1  UNL1        0.0000
   2464 C          29.4789    7.9348    1.1513 C.2    14  UNL14       0.0000
   2465 C          35.3303   -6.7842   12.2271 C.3     1  UNL1        0.0000
   2466 C          39.8990   -0.6776    1.3173 C.2     1  UNL1        0.0000
   2467 N          33.0487    6.2691    6.3947 N.pl3   1  UNL1        0.0000
   2468 N          39.7760   -1.2806    2.5366 N.2     1  UNL1        0.0000
   2469 N          39.1537   -0.6480   10.8228 N.3     1  UNL1        0.0000
   2470 N          25.0088    9.0711    6.1587 N.pl3   1  UNL1        0.0000
   2471 N          40.2476    5.2535    7.5898 N.3     1  UNL1        0.0000
   2472 N          38.2790   -4.3358    9.3726 N.3     1  UNL1        0.0000
   2473 O          39.7791    5.6777    5.0170 O.2     1  UNL1        0.0000
   2474 O          29.1987    1.9487    8.3466 O.3     1  UNL1        0.0000
   2475 O          36.3006   -2.6891    9.9884 O.2     1  UNL1        0.0000
   2476 O          32.7138   10.3370    3.4189 O.3     1  UNL1        0.0000
   2477 O          34.0825    9.4983    5.0133 O.3     1  UNL1        0.0000
   2478 O          35.0379   -1.7738    8.3588 O.2     1  UNL1        0.0000
   2479 O          41.1087    4.7268    3.4595 O.2     1  UNL1        0.0000
   2480 O          28.0296    3.0419    9.9460 O.3     1  UNL1        0.0000
   2481 O          38.4309    5.0365    2.6784 O.3     1  UNL1        0.0000
   2482 O          30.6855    2.6148   10.6216 O.3     1  UNL1        0.0000
   2483 O          39.8353    7.0585    2.5970 O.3     1  UNL1        0.0000
   2484 O          29.2063    0.6609   10.8207 O.3     1  UNL1        0.0000
   2485 O          33.6580   -2.5045   10.6223 O.3     1  UNL1        0.0000
   2486 O          35.3558   10.2137    2.7143 O.3     1  UNL1        0.0000
   2487 O          34.8875   -0.3876   10.8618 O.3     1  UNL1        0.0000
   2488 O          34.2070    8.0408    2.5698 O.3     1  UNL1        0.0000
   2489 O          37.0848    5.8805    5.1160 O.3     1  UNL1        0.0000
   2490 O          31.8983    1.7231    8.1810 O.3     1  UNL1        0.0000
   2491 O          38.8545    8.2153    4.8735 O.2     1  UNL1        0.0000
   2492 O          30.2089   -0.6690    8.5822 O.2     1  UNL1        0.0000
   2493 O          35.3330   -3.9785   12.3094 O.2     1  UNL1        0.0000
   2494 O          33.6372   11.6014    1.1320 O.2     1  UNL1        0.0000
   2495 O          37.1182   -1.6482   12.2092 O.2     1  UNL1        0.0000
   2496 O          31.9541    9.1999    1.1181 O.3     1  UNL1        0.0000
   2497 O          36.9909    9.4632    4.8554 O.2     1  UNL1        0.0000
   2498 O          32.1877   -1.7283    8.4354 O.2     1  UNL1        0.0000
   2499 O          35.2134    7.1392    5.1125 O.3     1  UNL1        0.0000
   2500 O          33.8835    0.6497    8.3256 O.3     1  UNL1        0.0000
   2501 O          41.9163    5.8423    1.0504 O.3     1  UNL1        0.0000
   2502 O          27.1691    1.9720   12.2811 O.3     1  UNL1        0.0000
   2503 O          40.1561    3.4903    1.1461 O.2     1  UNL1        0.0000
   2504 O          29.0738    4.2158   12.3101 O.3     1  UNL1        0.0000
   2505 O          36.8961    7.5269    2.8426 O.3     1  UNL1        0.0000
   2506 O          32.1554    0.1618   10.4993 O.3     1  UNL1        0.0000
   2507 O          39.3004    5.9592    0.0162 O.3     1  UNL1        0.0000
   2508 O          29.7740    1.6924   13.3668 O.3     1  UNL1        0.0000
   2509 TI         24.3688   -5.0979   24.9489 Ti      1  UNL1        0.0000
   2510 TI         35.3704   -2.0147   15.2573 Ti      1  UNL1        0.0000
   2511 TI         28.9147   -8.3989   23.0316 Ti      1  UNL1        0.0000
   2512 TI         30.7771    1.2851   17.1706 Ti      1  UNL1        0.0000
   2513 TI         29.0879    2.1615   15.2123 Ti      1  UNL1        0.0000
   2514 TI         30.4038   -9.5524   24.9940 Ti      1  UNL1        0.0000
   2515 TI         25.8088   -6.3972   23.0436 Ti      1  UNL1        0.0000
   2516 TI         33.6625   -0.9732   17.1146 Ti      1  UNL1        0.0000
   2517 H          30.9901   -5.7140   20.5307 H       1  UNL1        0.0000
   2518 H          27.3299  -11.3982   20.8554 H       1  UNL1        0.0000
   2519 H          32.4062    4.0834   19.3826 H       1  UNL1        0.0000
   2520 H          24.3636   -1.0780   24.7702 H       1  UNL1        0.0000
   2521 H          35.2156   -6.1446   15.5786 H       1  UNL1        0.0000
   2522 H          20.6204   -6.7266   24.6290 H       1  UNL1        0.0000
   2523 H          39.0379   -0.5213   15.4179 H       1  UNL1        0.0000
   2524 H          30.6502  -13.7084   24.6987 H       1  UNL1        0.0000
   2525 H          25.1919    0.7623   15.5079 H       1  UNL1        0.0000
   2526 H          32.1141   -3.7546   19.4325 H       1  UNL1        0.0000
   2527 H          27.3688   -3.4264   20.8490 H       1  UNL1        0.0000
   2528 H          39.6575   -9.1810   20.6849 H      23  UNL23       0.0000
   2529 H          25.2104   -6.7283   26.7017 H       1  UNL1        0.0000
   2530 H          34.3322   -0.5595   13.4347 H       1  UNL1        0.0000
   2531 H          27.7928   -6.7244   24.6004 H       1  UNL1        0.0000
   2532 H          31.7056   -0.4653   15.5731 H       1  UNL1        0.0000
   2533 H          31.0061   -9.7443   19.5426 H       1  UNL1        0.0000
   2534 H          28.6244    2.4371   20.6825 H       1  UNL1        0.0000
   2535 H          21.3169   -3.3068   22.5603 H       1  UNL1        0.0000
   2536 H          38.2310   -3.9471   17.7243 H       1  UNL1        0.0000
   2537 H          23.7663   -4.9539   19.4351 H       1  UNL1        0.0000
   2538 H          26.1670    4.3445   17.7130 H       1  UNL1        0.0000
   2539 H          27.3085   -1.2322   19.9299 H       1  UNL1        0.0000
   2540 H          28.7140   -0.4640   19.2218 H       1  UNL1        0.0000
   2541 H          28.9150    5.3805   15.9927 H       1  UNL1        0.0000
   2542 H          35.1959   -8.1958   16.7837 H       1  UNL1        0.0000
   2543 H          34.8153   -7.6786   23.4117 H       1  UNL1        0.0000
   2544 H          33.4726   -8.4900   24.1903 H       1  UNL1        0.0000
   2545 H          21.2726    1.6562   19.7185 H       1  UNL1        0.0000
   2546 H          35.9030    0.9169   18.9207 H      18  UNL18       0.0000
   2547 H          35.4342   -1.9870   21.9855 H       1  UNL1        0.0000
   2548 H          34.9266   -1.7268   20.3247 H       1  UNL1        0.0000
   2549 H          34.3978  -12.3075   22.9731 H       1  UNL1        0.0000
   2550 H          33.0617  -11.3191   23.5404 H       1  UNL1        0.0000
   2551 C          36.0632   -2.5059   18.0994 C.2     1  UNL1        0.0000
   2552 C          23.5159   -4.7417   22.1346 C.3     1  UNL1        0.0000
   2553 C          31.2821   -9.9748   22.1508 C.2     1  UNL1        0.0000
   2554 C          28.3173    2.7086   18.0511 C.3     1  UNL1        0.0000
   2555 C          36.9052   -3.0722   19.1636 C.2     1  UNL1        0.0000
   2556 C          22.6155   -4.1722   21.0946 C.ar    1  UNL1        0.0000
   2557 C          32.1286  -10.6300   21.1402 C.2     1  UNL1        0.0000
   2558 C          27.4759    3.3317   19.1114 C.ar    1  UNL1        0.0000
   2559 C          36.6131   -2.8804   20.5537 C.3     1  UNL1        0.0000
   2560 C          22.8931   -4.3768   19.7257 C.ar    1  UNL1        0.0000
   2561 C          33.2209  -11.4884   21.4961 C.3     1  UNL1        0.0000
   2562 C          26.3912    4.1654   18.7608 C.ar    1  UNL1        0.0000
   2563 C          27.7825    3.0848   20.4453 C.ar    1  UNL1        0.0000
   2564 C          31.8432  -10.3992   19.7744 C.3     1  UNL1        0.0000
   2565 C          38.0440   -3.8218   18.7883 C.3     1  UNL1        0.0000
   2566 C          21.5029   -3.4412   21.4965 C.ar    1  UNL1        0.0000
   2567 C          30.3927   -2.4809   19.5277 C.ar    1  UNL1        0.0000
   2568 C          29.1085   -4.6680   20.7374 C.ar    1  UNL1        0.0000
   2569 C          34.1610    2.8520   19.3944 C.2     1  UNL1        0.0000
   2570 C          25.5558  -10.2002   20.8302 C.2     1  UNL1        0.0000
   2571 C          35.3136   -6.0674   13.4432 C.2     1  UNL1        0.0000
   2572 C          28.9981    6.2694   13.4958 C.ar    1  UNL1        0.0000
   2573 C          34.2408   -8.0879   26.6908 C.2     1  UNL1        0.0000
   2574 C          20.6424   -6.6410   26.7659 C.ar    1  UNL1        0.0000
   2575 C          31.1061   -1.4004   18.8258 C.3     1  UNL1        0.0000
   2576 C          28.4207   -5.8168   21.3976 C.3     1  UNL1        0.0000
   2577 C          33.4870    1.8084   18.6135 C.2     1  UNL1        0.0000
   2578 C          26.2021   -9.1043   21.6044 C.2     1  UNL1        0.0000
   2579 C          35.3611   -4.5783   13.4423 C.2     1  UNL1        0.0000
   2580 C          28.9854    4.8014   13.4537 C.3     1  UNL1        0.0000
   2581 C          32.9549   -8.8022   26.7260 C.2     1  UNL1        0.0000
   2582 C          21.9378   -5.9000   26.7920 C.3     1  UNL1        0.0000
   2583 C          29.0250   -2.3577   19.9368 C.ar    1  UNL1        0.0000
   2584 C          30.4629   -4.7808   20.3559 C.ar    1  UNL1        0.0000
   2585 C          33.4382    4.0232   19.7195 C.2     1  UNL1        0.0000
   2586 C          26.2944  -11.3381   20.5252 C.3     1  UNL1        0.0000
   2587 C          35.2341   -6.7313   14.6622 C.3     1  UNL1        0.0000
   2588 C          24.3419   -0.4901   25.6847 C.ar    1  UNL1        0.0000
   2589 C          39.5618   -0.2399   14.5077 C.3     1  UNL1        0.0000
   2590 C          20.0952   -7.0053   25.5409 C.ar    1  UNL1        0.0000
   2591 C          19.5223    2.7252   19.8094 C.ar    1  UNL1        0.0000
   2592 C          40.2115  -10.0802   20.4314 C.3    19  UNL19       0.0000
   2593 C          31.0778   -3.6964   19.7569 C.ar    1  UNL1        0.0000
   2594 C          28.4089   -3.4834   20.5328 C.ar    1  UNL1        0.0000
   2595 C          34.8922   -7.7388   25.4629 C.3     1  UNL1        0.0000
   2596 C          24.7427    0.4700   14.5634 C.ar    1  UNL1        0.0000
   2597 C          30.5940  -14.2489   25.6392 C.3     1  UNL1        0.0000
   2598 C          35.1627   -8.1423   14.7294 C.2     1  UNL1        0.0000
   2599 N          28.3125   -1.1956   19.8068 N.pl3   1  UNL1        0.0000
   2600 N          35.0397   -8.7453   15.9488 N.2     1  UNL1        0.0000
   2601 N          34.4175   -8.1127   24.2349 N.3     1  UNL1        0.0000
   2602 N          20.2725    1.6064   19.5708 N.pl3   1  UNL1        0.0000
   2603 N          35.5113   -2.2113   21.0019 N.3     1  UNL1        0.0000
   2604 N          33.5427  -11.8005   22.7848 N.3     1  UNL1        0.0000
   2605 O          35.0428   -1.7870   18.4291 O.2     1  UNL1        0.0000
   2606 O          24.4624   -5.5161   21.7587 O.3     1  UNL1        0.0000
   2607 O          31.5643  -10.1538   23.4005 O.2     1  UNL1        0.0000
   2608 O          27.9776    2.8722   16.8310 O.3     1  UNL1        0.0000
   2609 O          29.3463    2.0336   18.4254 O.3     1  UNL1        0.0000
   2610 O          30.3016   -9.2386   21.7709 O.2     1  UNL1        0.0000
   2611 O          36.3724   -2.7379   16.8716 O.2     1  UNL1        0.0000
   2612 O          23.2933   -4.4228   23.3581 O.3     1  UNL1        0.0000
   2613 O          33.6946   -2.4282   16.0905 O.3     1  UNL1        0.0000
   2614 O          25.9493   -4.8499   24.0337 O.3     1  UNL1        0.0000
   2615 O          35.0991   -0.4063   16.0091 O.3     1  UNL1        0.0000
   2616 O          24.4701   -6.8039   24.2328 O.3     1  UNL1        0.0000
   2617 O          28.9217   -9.9692   24.0344 O.3     1  UNL1        0.0000
   2618 O          30.6196    2.7490   16.1265 O.3     1  UNL1        0.0000
   2619 O          30.1512   -7.8523   24.2739 O.3     1  UNL1        0.0000
   2620 O          29.4707    0.5761   15.9819 O.3     1  UNL1        0.0000
   2621 O          32.3485   -1.5842   18.5281 O.3     1  UNL1        0.0000
   2622 O          27.1621   -5.7416   21.5931 O.3     1  UNL1        0.0000
   2623 O          34.1182    0.7506   18.2856 O.2     1  UNL1        0.0000
   2624 O          25.4726   -8.1337   21.9943 O.2     1  UNL1        0.0000
   2625 O          30.5967  -11.4432   25.7215 O.2     1  UNL1        0.0000
   2626 O          28.9009    4.1366   14.5441 O.3     1  UNL1        0.0000
   2627 O          32.3819   -9.1129   25.6213 O.2     1  UNL1        0.0000
   2628 O          27.2178    1.7352   14.5302 O.3     1  UNL1        0.0000
   2629 O          32.2546    1.9984   18.2675 O.2     1  UNL1        0.0000
   2630 O          27.4514   -9.1930   21.8475 O.2     1  UNL1        0.0000
   2631 O          30.4771   -0.3255   18.5246 O.3     1  UNL1        0.0000
   2632 O          29.1473   -6.8151   21.7377 O.3     1  UNL1        0.0000
   2633 O          37.1800   -1.6224   14.4625 O.2     1  UNL1        0.0000
   2634 O          22.4328   -5.4928   25.6933 O.3     1  UNL1        0.0000
   2635 O          35.4199   -3.9745   14.5582 O.2     1  UNL1        0.0000
   2636 O          24.3375   -3.2489   25.7222 O.3     1  UNL1        0.0000
   2637 O          32.1599    0.0622   16.2548 O.3     1  UNL1        0.0000
   2638 O          27.4192   -7.3029   23.9114 O.3     1  UNL1        0.0000
   2639 O          34.5641   -1.5055   13.4283 O.3     1  UNL1        0.0000
   2640 O          25.0378   -5.7723   26.7789 O.3     1  UNL1        0.0000
   2641 TI         19.6326  -12.5626   38.3610 Ti      1  UNL1        0.0000
   2642 TI         30.6341   -9.4794   28.6694 Ti      1  UNL1        0.0000
   2643 TI         24.1785  -15.8636   36.4437 Ti      1  UNL1        0.0000
   2644 TI         26.0408   -6.1797   30.5827 Ti      1  UNL1        0.0000
   2645 TI         24.3516   -5.3032   28.6244 Ti      1  UNL1        0.0000
   2646 TI         25.6675  -17.0171   38.4061 Ti      1  UNL1        0.0000
   2647 TI         21.0726  -13.8619   36.4557 Ti      1  UNL1        0.0000
   2648 TI         28.9262   -8.4379   30.5267 Ti      1  UNL1        0.0000
   2649 H          26.2539  -13.1787   33.9428 H       1  UNL1        0.0000
   2650 H          22.5937  -18.8629   34.2675 H       1  UNL1        0.0000
   2651 H          27.6699   -3.3813   32.7947 H       1  UNL1        0.0000
   2652 H          19.6273   -8.5428   38.1823 H      24  UNL24       0.0000
   2653 H          30.4793  -13.6094   28.9907 H       1  UNL1        0.0000
   2654 H          15.8841  -14.1913   38.0411 H       1  UNL1        0.0000
   2655 H          34.3017   -7.9861   28.8300 H       1  UNL1        0.0000
   2656 H          25.9140  -21.1731   38.1108 H      26  UNL26       0.0000
   2657 H          20.4556   -6.7025   28.9200 H       1  UNL1        0.0000
   2658 H          27.3779  -11.2193   32.8446 H       1  UNL1        0.0000
   2659 H          22.6325  -10.8911   34.2611 H       1  UNL1        0.0000
   2660 H          34.9213  -16.6457   34.0970 H      25  UNL25       0.0000
   2661 H          20.4742  -14.1931   40.1138 H       1  UNL1        0.0000
   2662 H          29.5960   -8.0242   26.8468 H       1  UNL1        0.0000
   2663 H          23.0565  -14.1892   38.0125 H       1  UNL1        0.0000
   2664 H          26.9694   -7.9301   28.9852 H       1  UNL1        0.0000
   2665 H          26.2698  -17.2090   32.9548 H       1  UNL1        0.0000
   2666 H          23.8881   -5.0276   34.0946 H       1  UNL1        0.0000
   2667 H          16.5807  -10.7715   35.9724 H       1  UNL1        0.0000
   2668 H          33.4948  -11.4118   31.1364 H       1  UNL1        0.0000
   2669 H          19.0300  -12.4186   32.8472 H       1  UNL1        0.0000
   2670 H          21.4308   -3.1203   31.1251 H       1  UNL1        0.0000
   2671 H          22.5722   -8.6969   33.3420 H       1  UNL1        0.0000
   2672 H          23.9778   -7.9288   32.6339 H       1  UNL1        0.0000
   2673 H          24.1788   -2.0842   29.4048 H       1  UNL1        0.0000
   2674 H          30.4596  -15.6605   30.1958 H       1  UNL1        0.0000
   2675 H          30.0791  -15.1433   36.8238 H       1  UNL1        0.0000
   2676 H          28.7363  -15.9547   37.6024 H       1  UNL1        0.0000
   2677 H          16.5364   -5.8085   33.1306 H       1  UNL1        0.0000
   2678 H          31.1667   -6.5478   32.3328 H      20  UNL20       0.0000
   2679 H          30.6980   -9.4517   35.3976 H       1  UNL1        0.0000
   2680 H          30.1903   -9.1916   33.7368 H       1  UNL1        0.0000
   2681 H          29.6616  -19.7722   36.3852 H       1  UNL1        0.0000
   2682 H          28.3254  -18.7838   36.9525 H       1  UNL1        0.0000
   2683 C          31.3270   -9.9707   31.5115 C.2     1  UNL1        0.0000
   2684 C          18.7796  -12.2064   35.5467 C.3     1  UNL1        0.0000
   2685 C          26.5458  -17.4395   35.5629 C.2     1  UNL1        0.0000
   2686 C          23.5811   -4.7561   31.4632 C.3     1  UNL1        0.0000
   2687 C          32.1689  -10.5369   32.5757 C.2     1  UNL1        0.0000
   2688 C          17.8793  -11.6370   34.5067 C.ar    1  UNL1        0.0000
   2689 C          27.3923  -18.0947   34.5524 C.2     1  UNL1        0.0000
   2690 C          22.7396   -4.1330   32.5235 C.ar    1  UNL1        0.0000
   2691 C          31.8768  -10.3451   33.9658 C.3     1  UNL1        0.0000
   2692 C          18.1568  -11.8416   33.1378 C.ar    1  UNL1        0.0000
   2693 C          28.4846  -18.9532   34.9082 C.3     1  UNL1        0.0000
   2694 C          21.6549   -3.2994   32.1729 C.ar    1  UNL1        0.0000
   2695 C          23.0462   -4.3799   33.8574 C.ar    1  UNL1        0.0000
   2696 C          27.1070  -17.8640   33.1865 C.3     1  UNL1        0.0000
   2697 C          33.3078  -11.2866   32.2004 C.3     1  UNL1        0.0000
   2698 C          16.7667  -10.9059   34.9086 C.ar    1  UNL1        0.0000
   2699 C          25.6564   -9.9456   32.9398 C.ar    1  UNL1        0.0000
   2700 C          24.3723  -12.1327   34.1495 C.ar    1  UNL1        0.0000
   2701 C          29.4247   -4.6127   32.8065 C.2     1  UNL1        0.0000
   2702 C          20.8196  -17.6650   34.2423 C.2     1  UNL1        0.0000
   2703 C          30.5773  -13.5322   26.8553 C.2     1  UNL1        0.0000
   2704 C          24.2618   -1.1953   26.9079 C.ar    1  UNL1        0.0000
   2705 C          29.5045  -15.5526   40.1030 C.2     1  UNL1        0.0000
   2706 C          15.9062  -14.1057   40.1780 C.2     1  UNL1        0.0000
   2707 C          26.3698   -8.8652   32.2379 C.3     1  UNL1        0.0000
   2708 C          23.6844  -13.2815   34.8097 C.3     1  UNL1        0.0000
   2709 C          28.7508   -5.6563   32.0256 C.2     1  UNL1        0.0000
   2710 C          21.4658  -16.5691   35.0165 C.2     1  UNL1        0.0000
   2711 C          30.6248  -12.0430   26.8544 C.2     1  UNL1        0.0000
   2712 C          24.2491   -2.6633   26.8658 C.3     1  UNL1        0.0000
   2713 C          28.2186  -16.2669   40.1381 C.2     1  UNL1        0.0000
   2714 C          17.2016  -13.3648   40.2041 C.2     1  UNL1        0.0000
   2715 C          24.2888   -9.8224   33.3489 C.ar    1  UNL1        0.0000
   2716 C          25.7266  -12.2455   33.7680 C.ar    1  UNL1        0.0000
   2717 C          28.7020   -3.4416   33.1317 C.2     1  UNL1        0.0000
   2718 C          21.5581  -18.8028   33.9373 C.3     1  UNL1        0.0000
   2719 C          30.4978  -14.1961   28.0743 C.3     1  UNL1        0.0000
   2720 C          19.6057   -7.9548   39.0968 C.2    24  UNL24       0.0000
   2721 C          34.8256   -7.7046   27.9198 C.3     1  UNL1        0.0000
   2722 C          15.3590  -14.4700   38.9530 C.2     1  UNL1        0.0000
   2723 C          14.7860   -4.7395   33.2215 C.ar    1  UNL1        0.0000
   2724 C          35.4752  -17.5450   33.8435 C.3    21  UNL21       0.0000
   2725 C          26.3416  -11.1611   33.1690 C.ar    1  UNL1        0.0000
   2726 C          23.6726  -10.9482   33.9449 C.ar    1  UNL1        0.0000
   2727 C          30.1559  -15.2035   38.8750 C.3     1  UNL1        0.0000
   2728 C          20.0064   -6.9947   27.9755 C.ar    1  UNL1        0.0000
   2729 C          25.8577  -21.7136   39.0513 C.3    22  UNL22       0.0000
   2730 C          30.4265  -15.6071   28.1415 C.2     1  UNL1        0.0000
   2731 N          23.5762   -8.6603   33.2189 N.pl3   1  UNL1        0.0000
   2732 N          30.3034  -16.2101   29.3609 N.2     1  UNL1        0.0000
   2733 N          29.6812  -15.5774   37.6471 N.3     1  UNL1        0.0000
   2734 N          15.5362   -5.8583   32.9830 N.pl3   1  UNL1        0.0000
   2735 N          30.7750   -9.6760   34.4140 N.3     1  UNL1        0.0000
   2736 N          28.8065  -19.2653   36.1969 N.3     1  UNL1        0.0000
   2737 O          30.3066   -9.2517   31.8413 O.2     1  UNL1        0.0000
   2738 O          19.7262  -12.9808   35.1708 O.3     1  UNL1        0.0000
   2739 O          26.8281  -17.6185   36.8126 O.2     1  UNL1        0.0000
   2740 O          23.2413   -4.5925   30.2431 O.3     1  UNL1        0.0000
   2741 O          24.6100   -5.4311   31.8375 O.3     1  UNL1        0.0000
   2742 O          25.5653  -16.7033   35.1830 O.2     1  UNL1        0.0000
   2743 O          31.6362  -10.2026   30.2837 O.2     1  UNL1        0.0000
   2744 O          18.5570  -11.8875   36.7702 O.3     1  UNL1        0.0000
   2745 O          28.9583   -9.8929   29.5026 O.3     1  UNL1        0.0000
   2746 O          21.2130  -12.3146   37.4458 O.3     1  UNL1        0.0000
   2747 O          30.3628   -7.8710   29.4212 O.3     1  UNL1        0.0000
   2748 O          19.7338  -14.2686   37.6449 O.3     1  UNL1        0.0000
   2749 O          24.1855  -17.4340   37.4465 O.3     1  UNL1        0.0000
   2750 O          25.8833   -4.7158   29.5386 O.3     1  UNL1        0.0000
   2751 O          25.4150  -15.3170   37.6860 O.3     1  UNL1        0.0000
   2752 O          24.7345   -6.8887   29.3940 O.3     1  UNL1        0.0000
   2753 O          27.6122   -9.0489   31.9402 O.3     1  UNL1        0.0000
   2754 O          22.4258  -13.2064   35.0052 O.3     1  UNL1        0.0000
   2755 O          29.3820   -6.7142   31.6977 O.2     1  UNL1        0.0000
   2756 O          20.7364  -15.5984   35.4064 O.2     1  UNL1        0.0000
   2757 O          25.8605  -18.9079   39.1336 O.3     1  UNL1        0.0000
   2758 O          24.1647   -3.3281   27.9563 O.3     1  UNL1        0.0000
   2759 O          27.6457  -16.5776   39.0334 O.2     1  UNL1        0.0000
   2760 O          22.4815   -5.7296   27.9423 O.3     1  UNL1        0.0000
   2761 O          27.5183   -5.4663   31.6796 O.2     1  UNL1        0.0000
   2762 O          22.7152  -16.6577   35.2596 O.2     1  UNL1        0.0000
   2763 O          25.7409   -7.7903   31.9367 O.3     1  UNL1        0.0000
   2764 O          24.4110  -14.2798   35.1498 O.3     1  UNL1        0.0000
   2765 O          32.4437   -9.0871   27.8746 O.2     1  UNL1        0.0000
   2766 O          17.6965  -12.9575   39.1054 O.2     1  UNL1        0.0000
   2767 O          30.6836  -11.4392   27.9703 O.2     1  UNL1        0.0000
   2768 O          19.6013  -10.7137   39.1343 O.3     1  UNL1        0.0000
   2769 O          27.4236   -7.4025   29.6669 O.3     1  UNL1        0.0000
   2770 O          22.6829  -14.7676   37.3235 O.3     1  UNL1        0.0000
   2771 O          29.8279   -8.9702   26.8404 O.3     1  UNL1        0.0000
   2772 O          20.3015  -13.2370   40.1910 O.3     1  UNL1        0.0000
   2773 TI         22.9058   17.5069   11.5368 Ti      1  UNL1        0.0000
   2774 TI         33.9073   20.5901    1.8452 Ti      1  UNL1        0.0000
   2775 TI         27.4517   14.2059    9.6194 Ti      1  UNL1        0.0000
   2776 TI         29.3141   23.8898    3.7585 Ti      1  UNL1        0.0000
   2777 TI         27.6249   24.7663    1.8002 Ti      1  UNL1        0.0000
   2778 TI         28.9407   13.0524   11.5819 Ti      1  UNL1        0.0000
   2779 TI         24.3458   16.2076    9.6315 Ti      1  UNL1        0.0000
   2780 TI         32.1995   21.6316    3.7025 Ti      1  UNL1        0.0000
   2781 H          29.5271   16.8908    7.1186 H       1  UNL1        0.0000
   2782 H          25.8669   11.2066    7.4433 H       1  UNL1        0.0000
   2783 H          30.9432   26.6882    5.9705 H       1  UNL1        0.0000
   2784 H          22.9006   21.5267   11.3581 H       1  UNL1        0.0000
   2785 H          33.7526   16.4601    2.1665 H       1  UNL1        0.0000
   2786 H          19.1574   15.8782   11.2168 H       1  UNL1        0.0000
   2787 H          37.5749   22.0834    2.0058 H      27  UNL27       0.0000
   2788 H          29.1872    8.8964   11.2866 H       1  UNL1        0.0000
   2789 H          23.7289   23.3670    2.0958 H      17  UNL17       0.0000
   2790 H          30.6511   18.8502    6.0204 H       1  UNL1        0.0000
   2791 H          25.9058   19.1784    7.4369 H       1  UNL1        0.0000
   2792 H          38.1945   13.4238    7.2727 H       1  UNL1        0.0000
   2793 H          23.7474   15.8764   13.2896 H       1  UNL1        0.0000
   2794 H          32.8692   22.0453    0.0226 H       1  UNL1        0.0000
   2795 H          26.3298   15.8803   11.1883 H       1  UNL1        0.0000
   2796 H          30.2426   22.1394    2.1610 H       1  UNL1        0.0000
   2797 H          29.5430   12.8605    6.1305 H       1  UNL1        0.0000
   2798 H          27.1613   25.0419    7.2704 H       1  UNL1        0.0000
   2799 H          19.8539   19.2980    9.1482 H       1  UNL1        0.0000
   2800 H          36.7680   18.6577    4.3122 H       1  UNL1        0.0000
   2801 H          22.3033   17.6509    6.0229 H       1  UNL1        0.0000
   2802 H          24.7040   26.9492    4.3009 H       1  UNL1        0.0000
   2803 H          25.8454   21.3726    6.5178 H       1  UNL1        0.0000
   2804 H          27.2510   22.1407    5.8096 H       1  UNL1        0.0000
   2805 H          27.4520   27.9853    2.5806 H       1  UNL1        0.0000
   2806 H          33.7328   14.4090    3.3716 H       1  UNL1        0.0000
   2807 H          33.3523   14.9262    9.9996 H       1  UNL1        0.0000
   2808 H          32.0095   14.1148   10.7782 H       1  UNL1        0.0000
   2809 H          19.8096   24.2610    6.3064 H       1  UNL1        0.0000
   2810 H          34.4399   23.5217    5.5086 H      23  UNL23       0.0000
   2811 H          33.9712   20.6178    8.5733 H       1  UNL1        0.0000
   2812 H          33.4635   20.8779    6.9126 H       1  UNL1        0.0000
   2813 H          32.9348   10.2973    9.5610 H       1  UNL1        0.0000
   2814 H          31.5986   11.2857   10.1283 H       1  UNL1        0.0000
   2815 C          34.6002   20.0988    4.6873 C.2     1  UNL1        0.0000
   2816 C          22.0528   17.8631    8.7224 C.3     1  UNL1        0.0000
   2817 C          29.8190   12.6300    8.7387 C.3     1  UNL1        0.0000
   2818 C          26.8543   25.3134    4.6390 C.3     1  UNL1        0.0000
   2819 C          35.4422   19.5326    5.7515 C.2     1  UNL1        0.0000
   2820 C          21.1525   18.4325    7.6825 C.ar    1  UNL1        0.0000
   2821 C          30.6655   11.9748    7.7281 C.ar    1  UNL1        0.0000
   2822 C          26.0129   25.9365    5.6993 C.ar    1  UNL1        0.0000
   2823 C          35.1501   19.7244    7.1416 C.3     1  UNL1        0.0000
   2824 C          21.4301   18.2279    6.3136 C.ar    1  UNL1        0.0000
   2825 C          31.7578   11.1163    8.0840 C.ar    1  UNL1        0.0000
   2826 C          24.9282   26.7701    5.3487 C.ar    1  UNL1        0.0000
   2827 C          26.3194   25.6896    7.0332 C.ar    1  UNL1        0.0000
   2828 C          30.3802   12.2055    6.3623 C.ar    1  UNL1        0.0000
   2829 C          36.5810   18.7829    5.3762 C.3     1  UNL1        0.0000
   2830 C          20.0399   19.1636    8.0844 C.ar    1  UNL1        0.0000
   2831 C          28.9296   20.1239    6.1156 C.ar    1  UNL1        0.0000
   2832 C          27.6455   17.9368    7.3253 C.ar    1  UNL1        0.0000
   2833 C          32.6979   25.4568    5.9823 C.2     1  UNL1        0.0000
   2834 C          24.0928   12.4045    7.4181 C.ar    1  UNL1        0.0000
   2835 C          33.8506   16.5373    0.0311 C.2     1  UNL1        0.0000
   2836 C          27.5350   28.8742    0.0837 C.2     1  UNL1        0.0000
   2837 C          32.7778   14.5169   13.2787 C.2     1  UNL1        0.0000
   2838 C          19.1794   15.9638   13.3538 C.ar    1  UNL1        0.0000
   2839 C          29.6431   21.2043    5.4137 C.3     1  UNL1        0.0000
   2840 C          26.9576   16.7880    7.9855 C.3     1  UNL1        0.0000
   2841 C          32.0240   24.4132    5.2014 C.2     1  UNL1        0.0000
   2842 C          24.7390   13.5004    8.1923 C.3     1  UNL1        0.0000
   2843 C          33.8981   18.0265    0.0302 C.2     1  UNL1        0.0000
   2844 C          27.5224   27.4062    0.0416 C.2     1  UNL1        0.0000
   2845 C          31.4919   13.8026   13.3139 C.2     1  UNL1        0.0000
   2846 C          20.4748   16.7047   13.3799 C.3     1  UNL1        0.0000
   2847 C          27.5620   20.2471    6.5247 C.ar    1  UNL1        0.0000
   2848 C          28.9999   17.8240    6.9438 C.ar    1  UNL1        0.0000
   2849 C          31.9752   26.6279    6.3074 C.2     1  UNL1        0.0000
   2850 C          24.8314   11.2667    7.1130 C.ar    1  UNL1        0.0000
   2851 C          33.7710   15.8734    1.2500 C.2     1  UNL1        0.0000
   2852 C          22.8789   22.1147   12.2726 C.ar    1  UNL1        0.0000
   2853 C          38.0988   22.3649    1.0955 C.3    24  UNL24       0.0000
   2854 C          18.6322   15.5995   12.1288 C.ar    1  UNL1        0.0000
   2855 C          18.0592   25.3300    6.3973 C.ar    1  UNL1        0.0000
   2856 C          38.7485   12.5245    7.0193 C.2     1  UNL1        0.0000
   2857 C          29.6148   18.9084    6.3447 C.ar    1  UNL1        0.0000
   2858 C          26.9459   19.1213    7.1206 C.ar    1  UNL1        0.0000
   2859 C          33.4291   14.8660   12.0508 C.3     1  UNL1        0.0000
   2860 C          23.2796   23.0748    1.1513 C.2    17  UNL17       0.0000
   2861 C          29.1310    8.3559   12.2271 C.ar    1  UNL1        0.0000
   2862 C          33.6997   14.4624    1.3173 C.2     1  UNL1        0.0000
   2863 N          26.8494   21.4092    6.3947 N.pl3   1  UNL1        0.0000
   2864 N          33.5767   13.8594    2.5366 N.pl3   1  UNL1        0.0000
   2865 N          32.9544   14.4921   10.8228 N.3     1  UNL1        0.0000
   2866 N          18.8095   24.2112    6.1587 N.pl3   1  UNL1        0.0000
   2867 N          34.0483   20.3935    7.5898 N.3     1  UNL1        0.0000
   2868 N          32.0797   10.8042    9.3726 N.pl3   1  UNL1        0.0000
   2869 O          33.5798   20.8178    5.0170 O.2     1  UNL1        0.0000
   2870 O          22.9994   17.0887    8.3466 O.3     1  UNL1        0.0000
   2871 O          30.1013   12.4510    9.9884 O.3     1  UNL1        0.0000
   2872 O          26.5146   25.4770    3.4189 O.3     1  UNL1        0.0000
   2873 O          27.8832   24.6384    5.0133 O.3     1  UNL1        0.0000
   2874 O          28.8386   13.3662    8.3588 O.3     1  UNL1        0.0000
   2875 O          34.9094   19.8669    3.4595 O.2     1  UNL1        0.0000
   2876 O          21.8303   18.1820    9.9460 O.3     1  UNL1        0.0000
   2877 O          32.2316   20.1766    2.6784 O.3     1  UNL1        0.0000
   2878 O          24.4863   17.7549   10.6216 O.3     1  UNL1        0.0000
   2879 O          33.6360   22.1985    2.5970 O.3     1  UNL1        0.0000
   2880 O          23.0070   15.8009   10.8207 O.3     1  UNL1        0.0000
   2881 O          27.4587   12.6355   10.6223 O.3     1  UNL1        0.0000
   2882 O          29.1566   25.3537    2.7143 O.3     1  UNL1        0.0000
   2883 O          28.6882   14.7525   10.8618 O.3     1  UNL1        0.0000
   2884 O          28.0077   23.1808    2.5698 O.3     1  UNL1        0.0000
   2885 O          30.8855   21.0206    5.1160 O.3     1  UNL1        0.0000
   2886 O          25.6990   16.8631    8.1810 O.3     1  UNL1        0.0000
   2887 O          32.6552   23.3553    4.8735 O.2     1  UNL1        0.0000
   2888 O          24.0096   14.4711    8.5822 O.3     1  UNL1        0.0000
   2889 O          29.1337   11.1615   12.3094 O.3     1  UNL1        0.0000
   2890 O          27.4379   26.7414    1.1320 O.2     1  UNL1        0.0000
   2891 O          30.9189   13.4919   12.2092 O.2     1  UNL1        0.0000
   2892 O          25.7548   24.3399    1.1181 O.3     1  UNL1        0.0000
   2893 O          30.7916   24.6032    4.8554 O.2     1  UNL1        0.0000
   2894 O          25.9884   13.4118    8.4354 O.3     1  UNL1        0.0000
   2895 O          29.0141   22.2792    5.1125 O.3     1  UNL1        0.0000
   2896 O          27.6843   15.7897    8.3256 O.3     1  UNL1        0.0000
   2897 O          35.7170   20.9824    1.0504 O.3     1  UNL1        0.0000
   2898 O          20.9698   17.1120   12.2811 O.3     1  UNL1        0.0000
   2899 O          33.9568   18.6303    1.1461 O.2     1  UNL1        0.0000
   2900 O          22.8745   19.3558   12.3101 O.3     1  UNL1        0.0000
   2901 O          30.6969   22.6670    2.8426 O.3     1  UNL1        0.0000
   2902 O          25.9561   15.3019   10.4993 O.3     1  UNL1        0.0000
   2903 O          33.1011   21.0993    0.0162 O.3     1  UNL1        0.0000
   2904 O          23.5747   16.8325   13.3668 O.3     1  UNL1        0.0000
   2905 TI         18.1696   10.0422   24.9489 Ti      1  UNL1        0.0000
   2906 TI         29.1711   13.1253   15.2573 Ti      1  UNL1        0.0000
   2907 TI         22.7155    6.7412   23.0316 Ti      1  UNL1        0.0000
   2908 TI         24.5778   16.4251   17.1706 Ti      1  UNL1        0.0000
   2909 TI         22.8886   17.3015   15.2123 Ti      1  UNL1        0.0000
   2910 TI         24.2045    5.5877   24.9940 Ti      1  UNL1        0.0000
   2911 TI         19.6095    8.7429   23.0436 Ti      1  UNL1        0.0000
   2912 TI         27.4632   14.1668   17.1146 Ti      1  UNL1        0.0000
   2913 H          24.7908    9.4261   20.5307 H       1  UNL1        0.0000
   2914 H          21.1307    3.7419   20.8554 H       1  UNL1        0.0000
   2915 H          26.2069   19.2234   19.3826 H       1  UNL1        0.0000
   2916 H          18.1643   14.0620   24.7702 H       1  UNL1        0.0000
   2917 H          29.0163    8.9954   15.5786 H       1  UNL1        0.0000
   2918 H          14.4211    8.4134   24.6290 H       1  UNL1        0.0000
   2919 H          32.8386   14.6187   15.4179 H       1  UNL1        0.0000
   2920 H          24.4509    1.4317   24.6987 H       1  UNL1        0.0000
   2921 H          18.9926   15.9023   15.5079 H       1  UNL1        0.0000
   2922 H          25.9149   11.3855   19.4325 H       1  UNL1        0.0000
   2923 H          21.1695   11.7137   20.8490 H       1  UNL1        0.0000
   2924 H          33.4582    5.9591   20.6849 H       1  UNL1        0.0000
   2925 H          19.0112    8.4117   26.7017 H       1  UNL1        0.0000
   2926 H          28.1330   14.5806   13.4347 H       1  UNL1        0.0000
   2927 H          21.5935    8.4156   24.6004 H       1  UNL1        0.0000
   2928 H          25.5063   14.6747   15.5731 H       1  UNL1        0.0000
   2929 H          24.8068    5.3957   19.5426 H       1  UNL1        0.0000
   2930 H          22.4251   17.5772   20.6825 H       1  UNL1        0.0000
   2931 H          15.1176   11.8333   22.5603 H       1  UNL1        0.0000
   2932 H          32.0317   11.1929   17.7243 H       1  UNL1        0.0000
   2933 H          17.5670   10.1862   19.4351 H       1  UNL1        0.0000
   2934 H          19.9677   19.4845   17.7130 H       1  UNL1        0.0000
   2935 H          21.1092   13.9079   19.9299 H       1  UNL1        0.0000
   2936 H          22.5147   14.6760   19.2218 H       1  UNL1        0.0000
   2937 H          22.7157   20.5206   15.9927 H       1  UNL1        0.0000
   2938 H          28.9966    6.9443   16.7837 H       1  UNL1        0.0000
   2939 H          28.6161    7.4615   23.4117 H       1  UNL1        0.0000
   2940 H          27.2733    6.6501   24.1903 H       1  UNL1        0.0000
   2941 H          15.0733   16.7963   19.7185 H       1  UNL1        0.0000
   2942 H          29.7037   16.0569   18.9207 H      25  UNL25       0.0000
   2943 H          29.2350   13.1531   21.9855 H       1  UNL1        0.0000
   2944 H          28.7273   13.4132   20.3247 H       1  UNL1        0.0000
   2945 H          28.1985    2.8326   22.9731 H       1  UNL1        0.0000
   2946 H          26.8624    3.8209   23.5404 H       1  UNL1        0.0000
   2947 C          29.8639   12.6341   18.0994 C.2     1  UNL1        0.0000
   2948 C          17.3166   10.3984   22.1346 C.3     1  UNL1        0.0000
   2949 C          25.0828    5.1652   22.1508 C.3     1  UNL1        0.0000
   2950 C          22.1180   17.8487   18.0511 C.3     1  UNL1        0.0000
   2951 C          30.7059   12.0679   19.1636 C.2     1  UNL1        0.0000
   2952 C          16.4163   10.9678   21.0946 C.ar    1  UNL1        0.0000
   2953 C          25.9293    4.5100   21.1402 C.ar    1  UNL1        0.0000
   2954 C          21.2766   18.4717   19.1114 C.ar    1  UNL1        0.0000
   2955 C          30.4138   12.2597   20.5537 C.3     1  UNL1        0.0000
   2956 C          16.6938   10.7632   19.7257 C.ar    1  UNL1        0.0000
   2957 C          27.0216    3.6516   21.4961 C.ar    1  UNL1        0.0000
   2958 C          20.1919   19.3054   18.7608 C.ar    1  UNL1        0.0000
   2959 C          21.5832   18.2249   20.4453 C.ar    1  UNL1        0.0000
   2960 C          25.6439    4.7408   19.7744 C.ar    1  UNL1        0.0000
   2961 C          31.8447   11.3182   18.7883 C.3     1  UNL1        0.0000
   2962 C          15.3036   11.6989   21.4965 C.ar    1  UNL1        0.0000
   2963 C          24.1934   12.6592   19.5277 C.ar    1  UNL1        0.0000
   2964 C          22.9093   10.4720   20.7374 C.ar    1  UNL1        0.0000
   2965 C          27.9617   17.9921   19.3944 C.2     1  UNL1        0.0000
   2966 C          19.3565    4.9398   20.8302 C.ar    1  UNL1        0.0000
   2967 C          29.1143    9.0726   13.4432 C.ar    1  UNL1        0.0000
   2968 C          22.7988   21.4095   13.4958 C.ar    1  UNL1        0.0000
   2969 C          28.0415    7.0521   26.6908 C.2     1  UNL1        0.0000
   2970 C          14.4431    8.4991   26.7659 C.ar    1  UNL1        0.0000
   2971 C          24.9068   13.7396   18.8258 C.3     1  UNL1        0.0000
   2972 C          22.2214    9.3232   21.3976 C.3     1  UNL1        0.0000
   2973 C          27.2877   16.9484   18.6135 C.2     1  UNL1        0.0000
   2974 C          20.0028    6.0357   21.6044 C.3     1  UNL1        0.0000
   2975 C          29.1618   10.5618   13.4423 C.3     1  UNL1        0.0000
   2976 C          22.7861   19.9415   13.4537 C.3     1  UNL1        0.0000
   2977 C          26.7556    6.3378   26.7260 C.2     1  UNL1        0.0000
   2978 C          15.7385    9.2400   26.7920 C.3     1  UNL1        0.0000
   2979 C          22.8258   12.7824   19.9368 C.ar    1  UNL1        0.0000
   2980 C          24.2636   10.3593   20.3559 C.ar    1  UNL1        0.0000
   2981 C          27.2389   19.1632   19.7195 C.2     1  UNL1        0.0000
   2982 C          20.0951    3.8019   20.5252 C.ar    1  UNL1        0.0000
   2983 C          29.0348    8.4087   14.6622 C.ar    1  UNL1        0.0000
   2984 C          18.1427   14.6500   25.6847 C.ar    1  UNL1        0.0000
   2985 C          33.3626   14.9001   14.5077 C.3     1  UNL1        0.0000
   2986 C          13.8959    8.1348   25.5409 C.ar    1  UNL1        0.0000
   2987 C          13.3230   17.8652   19.8094 C.ar    1  UNL1        0.0000
   2988 C          34.0122    5.0598   20.4314 C.2     1  UNL1        0.0000
   2989 C          24.8786   11.4436   19.7569 C.ar    1  UNL1        0.0000
   2990 C          22.2096   11.6566   20.5328 C.ar    1  UNL1        0.0000
   2991 C          28.6929    7.4012   25.4629 C.3     1  UNL1        0.0000
   2992 C          18.5434   15.6101   14.5634 C.ar    1  UNL1        0.0000
   2993 C          24.3947    0.8912   25.6392 C.ar    1  UNL1        0.0000
   2994 C          28.9634    6.9977   14.7294 C.ar    1  UNL1        0.0000
   2995 N          22.1132   13.9445   19.8068 N.pl3   1  UNL1        0.0000
   2996 N          28.8404    6.3947   15.9488 N.pl3   1  UNL1        0.0000
   2997 N          28.2182    7.0274   24.2349 N.3     1  UNL1        0.0000
   2998 N          14.0732   16.7464   19.5708 N.pl3   1  UNL1        0.0000
   2999 N          29.3120   12.9288   21.0019 N.3     1  UNL1        0.0000
   3000 N          27.3435    3.3395   22.7848 N.pl3   1  UNL1        0.0000
   3001 O          28.8435   13.3531   18.4291 O.2     1  UNL1        0.0000
   3002 O          18.2631    9.6240   21.7587 O.3     1  UNL1        0.0000
   3003 O          25.3651    4.9863   23.4005 O.3     1  UNL1        0.0000
   3004 O          21.7783   18.0123   16.8310 O.3     1  UNL1        0.0000
   3005 O          23.1470   17.1736   18.4254 O.3     1  UNL1        0.0000
   3006 O          24.1023    5.9015   21.7709 O.3     1  UNL1        0.0000
   3007 O          30.1731   12.4022   16.8716 O.2     1  UNL1        0.0000
   3008 O          17.0940   10.7172   23.3581 O.3     1  UNL1        0.0000
   3009 O          27.4953   12.7119   16.0905 O.3     1  UNL1        0.0000
   3010 O          19.7500   10.2901   24.0337 O.3     1  UNL1        0.0000
   3011 O          28.8998   14.7338   16.0091 O.3     1  UNL1        0.0000
   3012 O          18.2708    8.3362   24.2328 O.3     1  UNL1        0.0000
   3013 O          22.7225    5.1708   24.0344 O.3     1  UNL1        0.0000
   3014 O          24.4203   17.8890   16.1265 O.3     1  UNL1        0.0000
   3015 O          23.9520    7.2878   24.2739 O.3     1  UNL1        0.0000
   3016 O          23.2714   15.7161   15.9819 O.3     1  UNL1        0.0000
   3017 O          26.1492   13.5559   18.5281 O.3     1  UNL1        0.0000
   3018 O          20.9628    9.3984   21.5931 O.3     1  UNL1        0.0000
   3019 O          27.9189   15.8906   18.2856 O.2     1  UNL1        0.0000
   3020 O          19.2734    7.0064   21.9943 O.3     1  UNL1        0.0000
   3021 O          24.3974    3.6968   25.7215 O.3     1  UNL1        0.0000
   3022 O          22.7016   19.2767   14.5441 O.3     1  UNL1        0.0000
   3023 O          26.1826    6.0272   25.6213 O.2     1  UNL1        0.0000
   3024 O          21.0185   16.8752   14.5302 O.3     1  UNL1        0.0000
   3025 O          26.0553   17.1385   18.2675 O.2     1  UNL1        0.0000
   3026 O          21.2521    5.9471   21.8475 O.3     1  UNL1        0.0000
   3027 O          24.2779   14.8145   18.5246 O.3     1  UNL1        0.0000
   3028 O          22.9480    8.3250   21.7377 O.3     1  UNL1        0.0000
   3029 O          30.9807   13.5176   14.4625 O.2     1  UNL1        0.0000
   3030 O          16.2335    9.6473   25.6933 O.3     1  UNL1        0.0000
   3031 O          29.2206   11.1656   14.5582 O.3     1  UNL1        0.0000
   3032 O          18.1382   11.8911   25.7222 O.3     1  UNL1        0.0000
   3033 O          25.9606   15.2023   16.2548 O.3     1  UNL1        0.0000
   3034 O          21.2199    7.8371   23.9114 O.3     1  UNL1        0.0000
   3035 O          28.3649   13.6346   13.4283 O.3     1  UNL1        0.0000
   3036 O          18.8385    9.3677   26.7789 O.3     1  UNL1        0.0000
   3037 TI         13.4333    2.5775   38.3610 Ti      1  UNL1        0.0000
   3038 TI         24.4348    5.6606   28.6694 Ti      1  UNL1        0.0000
   3039 TI         17.9792   -0.7235   36.4437 Ti      1  UNL1        0.0000
   3040 TI         19.8416    8.9604   30.5827 Ti      1  UNL1        0.0000
   3041 TI         18.1523    9.8368   28.6244 Ti      1  UNL1        0.0000
   3042 TI         19.4682   -1.8770   38.4061 Ti      1  UNL1        0.0000
   3043 TI         14.8733    1.2781   36.4557 Ti      1  UNL1        0.0000
   3044 TI         22.7269    6.7021   30.5267 Ti      1  UNL1        0.0000
   3045 H          20.0546    1.9614   33.9428 H       1  UNL1        0.0000
   3046 H          16.3944   -3.7228   34.2675 H       1  UNL1        0.0000
   3047 H          21.4706   11.7587   32.7947 H       1  UNL1        0.0000
   3048 H          13.4280    6.5973   38.1823 H      28  UNL28       0.0000
   3049 H          24.2800    1.5307   28.9907 H       1  UNL1        0.0000
   3050 H           9.6848    0.9487   38.0411 H       1  UNL1        0.0000
   3051 H          28.1024    7.1540   28.8300 H       1  UNL1        0.0000
   3052 H          19.7147   -6.0331   38.1108 H      24  UNL24       0.0000
   3053 H          14.2564    8.4376   28.9200 H       1  UNL1        0.0000
   3054 H          21.1786    3.9207   32.8446 H       1  UNL1        0.0000
   3055 H          16.4333    4.2490   34.2611 H       1  UNL1        0.0000
   3056 H          28.7220   -1.5057   34.0970 H       1  UNL1        0.0000
   3057 H          14.2749    0.9470   40.1138 H       1  UNL1        0.0000
   3058 H          23.3967    7.1158   26.8468 H       1  UNL1        0.0000
   3059 H          16.8572    0.9509   38.0125 H       1  UNL1        0.0000
   3060 H          20.7701    7.2100   28.9852 H       1  UNL1        0.0000
   3061 H          20.0705   -2.0690   32.9548 H       1  UNL1        0.0000
   3062 H          17.6888   10.1125   34.0946 H       1  UNL1        0.0000
   3063 H          10.3814    4.3685   35.9724 H       1  UNL1        0.0000
   3064 H          27.2955    3.7282   31.1364 H       1  UNL1        0.0000
   3065 H          12.8307    2.7214   32.8472 H       1  UNL1        0.0000
   3066 H          15.2315   12.0198   31.1251 H       1  UNL1        0.0000
   3067 H          16.3729    6.4431   33.3420 H       1  UNL1        0.0000
   3068 H          17.7785    7.2113   32.6339 H       1  UNL1        0.0000
   3069 H          17.9795   13.0558   29.4048 H       1  UNL1        0.0000
   3070 H          24.2603   -0.5204   30.1958 H       1  UNL1        0.0000
   3071 H          23.8798   -0.0033   36.8238 H       1  UNL1        0.0000
   3072 H          22.5370   -0.8146   37.6024 H       1  UNL1        0.0000
   3073 H          10.3371    9.3316   33.1306 H       1  UNL1        0.0000
   3074 H          24.9674    8.5922   32.3328 H      26  UNL26       0.0000
   3075 H          24.4987    5.6883   35.3976 H       1  UNL1        0.0000
   3076 H          23.9910    5.9485   33.7368 H       1  UNL1        0.0000
   3077 H          23.4623   -4.6322   36.3852 H       1  UNL1        0.0000
   3078 H          22.1261   -3.6438   36.9525 H       1  UNL1        0.0000
   3079 C          25.1277    5.1694   31.5115 C.2     1  UNL1        0.0000
   3080 C          12.5803    2.9337   35.5467 C.3     1  UNL1        0.0000
   3081 C          20.3465   -2.2995   35.5629 C.3     1  UNL1        0.0000
   3082 C          17.3818   10.3839   31.4632 C.3     1  UNL1        0.0000
   3083 C          25.9697    4.6032   32.5757 C.2     1  UNL1        0.0000
   3084 C          11.6800    3.5031   34.5067 C.ar    1  UNL1        0.0000
   3085 C          21.1930   -2.9547   34.5524 C.ar    1  UNL1        0.0000
   3086 C          16.5403   11.0070   32.5235 C.ar    1  UNL1        0.0000
   3087 C          25.6775    4.7950   33.9658 C.3     1  UNL1        0.0000
   3088 C          11.9575    3.2985   33.1378 C.ar    1  UNL1        0.0000
   3089 C          22.2853   -3.8131   34.9082 C.ar    1  UNL1        0.0000
   3090 C          15.4557   11.8407   32.1729 C.ar    1  UNL1        0.0000
   3091 C          16.8469   10.7601   33.8574 C.ar    1  UNL1        0.0000
   3092 C          20.9077   -2.7239   33.1865 C.ar    1  UNL1        0.0000
   3093 C          27.1085    3.8535   32.2004 C.3     1  UNL1        0.0000
   3094 C          10.5674    4.2341   34.9086 C.ar    1  UNL1        0.0000
   3095 C          19.4571    5.1945   32.9398 C.ar    1  UNL1        0.0000
   3096 C          18.1730    3.0073   34.1495 C.ar    1  UNL1        0.0000
   3097 C          23.2254   10.5274   32.8065 C.2     1  UNL1        0.0000
   3098 C          14.6203   -2.5249   34.2423 C.ar    1  UNL1        0.0000
   3099 C          24.3781    1.6079   26.8553 C.ar    1  UNL1        0.0000
   3100 C          18.0625   13.9447   26.9079 C.ar    1  UNL1        0.0000
   3101 C          23.3052   -0.4126   40.1030 C.2     1  UNL1        0.0000
   3102 C           9.7069    1.0344   40.1780 C.2     1  UNL1        0.0000
   3103 C          20.1705    6.2749   32.2379 C.3     1  UNL1        0.0000
   3104 C          17.4851    1.8585   34.8097 C.3     1  UNL1        0.0000
   3105 C          22.5515    9.4837   32.0256 C.2     1  UNL1        0.0000
   3106 C          15.2665   -1.4290   35.0165 C.3     1  UNL1        0.0000
   3107 C          24.4255    3.0971   26.8544 C.3     1  UNL1        0.0000
   3108 C          18.0498   12.4767   26.8658 C.3     1  UNL1        0.0000
   3109 C          22.0194   -1.1269   40.1381 C.2     1  UNL1        0.0000
   3110 C          11.0023    1.7753   40.2041 C.2     1  UNL1        0.0000
   3111 C          18.0895    5.3176   33.3489 C.ar    1  UNL1        0.0000
   3112 C          19.5273    2.8946   33.7680 C.ar    1  UNL1        0.0000
   3113 C          22.5027   11.6985   33.1317 C.2     1  UNL1        0.0000
   3114 C          15.3589   -3.6628   33.9373 C.ar    1  UNL1        0.0000
   3115 C          24.2985    0.9440   28.0743 C.ar    1  UNL1        0.0000
   3116 C          13.4064    7.1852   39.0968 C.2    28  UNL28       0.0000
   3117 C          28.6263    7.4354   27.9198 C.3     1  UNL1        0.0000
   3118 C           9.1597    0.6700   38.9530 C.2     1  UNL1        0.0000
   3119 C           8.5867   10.4005   33.2215 C.ar    1  UNL1        0.0000
   3120 C          29.2759   -2.4049   33.8435 C.2     1  UNL1        0.0000
   3121 C          20.1423    3.9789   33.1690 C.ar    1  UNL1        0.0000
   3122 C          17.4733    4.1919   33.9449 C.ar    1  UNL1        0.0000
   3123 C          23.9566   -0.0635   38.8750 C.3     1  UNL1        0.0000
   3124 C          13.8071    8.1454   27.9755 C.ar    1  UNL1        0.0000
   3125 C          19.6584   -6.5736   39.0513 C.2    24  UNL24       0.0000
   3126 C          24.2272   -0.4670   28.1415 C.ar    1  UNL1        0.0000
   3127 N          17.3769    6.4797   33.2189 N.pl3   1  UNL1        0.0000
   3128 N          24.1042   -1.0700   29.3609 N.pl3   1  UNL1        0.0000
   3129 N          23.4819   -0.4374   37.6471 N.3     1  UNL1        0.0000
   3130 N           9.3370    9.2817   32.9830 N.pl3   1  UNL1        0.0000
   3131 N          24.5757    5.4641   34.4140 N.3     1  UNL1        0.0000
   3132 N          22.6072   -4.1252   36.1969 N.pl3   1  UNL1        0.0000
   3133 O          24.1073    5.8883   31.8413 O.2     1  UNL1        0.0000
   3134 O          13.5269    2.1593   35.1708 O.3     1  UNL1        0.0000
   3135 O          20.6288   -2.4785   36.8126 O.3     1  UNL1        0.0000
   3136 O          17.0420   10.5476   30.2431 O.3     1  UNL1        0.0000
   3137 O          18.4107    9.7089   31.8375 O.3     1  UNL1        0.0000
   3138 O          19.3660   -1.5632   35.1830 O.3     1  UNL1        0.0000
   3139 O          25.4369    4.9374   30.2837 O.2     1  UNL1        0.0000
   3140 O          12.3578    3.2525   36.7702 O.3     1  UNL1        0.0000
   3141 O          22.7590    5.2471   29.5026 O.3     1  UNL1        0.0000
   3142 O          15.0137    2.8254   37.4458 O.3     1  UNL1        0.0000
   3143 O          24.1635    7.2691   29.4212 O.3     1  UNL1        0.0000
   3144 O          13.5345    0.8715   37.6449 O.3     1  UNL1        0.0000
   3145 O          17.9862   -2.2939   37.4465 O.3     1  UNL1        0.0000
   3146 O          19.6840   10.4243   29.5386 O.3     1  UNL1        0.0000
   3147 O          19.2157   -0.1770   37.6860 O.3     1  UNL1        0.0000
   3148 O          18.5352    8.2514   29.3940 O.3     1  UNL1        0.0000
   3149 O          21.4130    6.0911   31.9402 O.3     1  UNL1        0.0000
   3150 O          16.2265    1.9337   35.0052 O.3     1  UNL1        0.0000
   3151 O          23.1827    8.4259   31.6977 O.2     1  UNL1        0.0000
   3152 O          14.5371   -0.4584   35.4064 O.3     1  UNL1        0.0000
   3153 O          19.6612   -3.7679   39.1336 O.3     1  UNL1        0.0000
   3154 O          17.9654   11.8120   27.9563 O.3     1  UNL1        0.0000
   3155 O          21.4464   -1.4376   39.0334 O.2     1  UNL1        0.0000
   3156 O          16.2823    9.4105   27.9423 O.3     1  UNL1        0.0000
   3157 O          21.3191    9.6738   31.6796 O.2     1  UNL1        0.0000
   3158 O          16.5159   -1.5177   35.2596 O.3     1  UNL1        0.0000
   3159 O          19.5416    7.3498   31.9367 O.3     1  UNL1        0.0000
   3160 O          18.2117    0.8603   35.1498 O.3     1  UNL1        0.0000
   3161 O          26.2444    6.0529   27.8746 O.2     1  UNL1        0.0000
   3162 O          11.4972    2.1826   39.1054 O.2     1  UNL1        0.0000
   3163 O          24.4843    3.7009   27.9703 O.3     1  UNL1        0.0000
   3164 O          13.4020    4.4264   39.1343 O.3     1  UNL1        0.0000
   3165 O          21.2243    7.7375   29.6669 O.3     1  UNL1        0.0000
   3166 O          16.4836    0.3724   37.3235 O.3     1  UNL1        0.0000
   3167 O          23.6286    6.1698   26.8404 O.3     1  UNL1        0.0000
   3168 O          14.1022    1.9030   40.1910 O.3     1  UNL1        0.0000
   3169 TI         16.7065   32.6470   11.5368 Ti      1  UNL1        0.0000
   3170 TI         27.7080   35.7301    1.8452 Ti      1  UNL1        0.0000
   3171 TI         21.2524   29.3460    9.6194 Ti      1  UNL1        0.0000
   3172 TI         23.1148   39.0299    3.7585 Ti      1  UNL1        0.0000
   3173 TI         21.4256   39.9063    1.8002 Ti      1  UNL1        0.0000
   3174 TI         22.7414   28.1925   11.5819 Ti      1  UNL1        0.0000
   3175 TI         18.1465   31.3476    9.6315 Ti      1  UNL1        0.0000
   3176 TI         26.0002   36.7716    3.7025 Ti      1  UNL1        0.0000
   3177 H          23.3278   32.0309    7.1186 H       1  UNL1        0.0000
   3178 H          19.6676   26.3467    7.4433 H       1  UNL1        0.0000
   3179 H          24.7439   41.8282    5.9705 H       1  UNL1        0.0000
   3180 H          16.7013   36.6668   11.3581 H       1  UNL1        0.0000
   3181 H          27.5533   31.6002    2.1665 H       1  UNL1        0.0000
   3182 H          12.9581   31.0182   11.2168 H       1  UNL1        0.0000
   3183 H          31.3756   37.2235    2.0058 H      29  UNL29       0.0000
   3184 H          22.9879   24.0364   11.2866 H       1  UNL1        0.0000
   3185 H          17.5296   38.5071    2.0958 H      19  UNL19       0.0000
   3186 H          24.4518   33.9902    6.0204 H       1  UNL1        0.0000
   3187 H          19.7065   34.3185    7.4369 H       1  UNL1        0.0000
   3188 H          31.9952   28.5638    7.2727 H       1  UNL1        0.0000
   3189 H          17.5481   31.0165   13.2896 H       1  UNL1        0.0000
   3190 H          26.6699   37.1853    0.0226 H       1  UNL1        0.0000
   3191 H          20.1305   31.0204   11.1883 H       1  UNL1        0.0000
   3192 H          24.0433   37.2795    2.1610 H       1  UNL1        0.0000
   3193 H          23.3438   28.0005    6.1305 H       1  UNL1        0.0000
   3194 H          20.9621   40.1820    7.2704 H       1  UNL1        0.0000
   3195 H          13.6546   34.4380    9.1482 H       1  UNL1        0.0000
   3196 H          30.5687   33.7977    4.3122 H       1  UNL1        0.0000
   3197 H          16.1040   32.7909    6.0229 H       1  UNL1        0.0000
   3198 H          18.5047   42.0893    4.3009 H       1  UNL1        0.0000
   3199 H          19.6461   36.5126    6.5178 H       1  UNL1        0.0000
   3200 H          21.0517   37.2808    5.8096 H       1  UNL1        0.0000
   3201 H          21.2527   43.1253    2.5806 H      27  UNL27       0.0000
   3202 H          27.5336   29.5491    3.3716 H       1  UNL1        0.0000
   3203 H          27.1530   30.0662    9.9996 H       1  UNL1        0.0000
   3204 H          25.8102   29.2549   10.7782 H       1  UNL1        0.0000
   3205 H          13.6103   39.4011    6.3064 H       1  UNL1        0.0000
   3206 H          28.2407   38.6617    5.5086 H      28  UNL28       0.0000
   3207 H          27.7719   35.7578    8.5733 H       1  UNL1        0.0000
   3208 H          27.2643   36.0180    6.9126 H       1  UNL1        0.0000
   3209 H          26.7355   25.4373    9.5610 H       1  UNL1        0.0000
   3210 H          25.3994   26.4257   10.1283 H       1  UNL1        0.0000
   3211 C          28.4009   35.2389    4.6873 C.2     1  UNL1        0.0000
   3212 C          15.8535   33.0032    8.7224 C.3     1  UNL1        0.0000
   3213 C          23.6198   27.7700    8.7387 C.3     1  UNL1        0.0000
   3214 C          20.6550   40.4534    4.6390 C.2     1  UNL1        0.0000
   3215 C          29.2429   34.6727    5.7515 C.2     1  UNL1        0.0000
   3216 C          14.9532   33.5726    7.6825 C.ar    1  UNL1        0.0000
   3217 C          24.4662   27.1148    7.7281 C.ar    1  UNL1        0.0000
   3218 C          19.8136   41.0765    5.6993 C.2     1  UNL1        0.0000
   3219 C          28.9508   34.8644    7.1416 C.3     1  UNL1        0.0000
   3220 C          15.2308   33.3680    6.3136 C.ar    1  UNL1        0.0000
   3221 C          25.5586   26.2564    8.0840 C.ar    1  UNL1        0.0000
   3222 C          18.7289   41.9102    5.3487 C.3     1  UNL1        0.0000
   3223 C          20.1202   40.8296    7.0332 C.3     1  UNL1        0.0000
   3224 C          24.1809   27.3456    6.3623 C.ar    1  UNL1        0.0000
   3225 C          30.3817   33.9230    5.3762 C.3     1  UNL1        0.0000
   3226 C          13.8406   34.3036    8.0844 C.ar    1  UNL1        0.0000
   3227 C          22.7304   35.2640    6.1156 C.ar    1  UNL1        0.0000
   3228 C          21.4462   33.0768    7.3253 C.ar    1  UNL1        0.0000
   3229 C          26.4986   40.5969    5.9823 C.2     1  UNL1        0.0000
   3230 C          17.8935   27.5446    7.4181 C.ar    1  UNL1        0.0000
   3231 C          27.6513   31.6774    0.0311 C.2     1  UNL1        0.0000
   3232 C          21.3358   44.0142    0.0837 C.3     1  UNL1        0.0000
   3233 C          26.5785   29.6569   13.2787 C.2     1  UNL1        0.0000
   3234 C          12.9801   31.1039   13.3538 C.ar    1  UNL1        0.0000
   3235 C          23.4438   36.3444    5.4137 C.3     1  UNL1        0.0000
   3236 C          20.7583   31.9280    7.9855 C.3     1  UNL1        0.0000
   3237 C          25.8247   39.5532    5.2014 C.2     1  UNL1        0.0000
   3238 C          18.5398   28.6405    8.1923 C.3     1  UNL1        0.0000
   3239 C          27.6988   33.1665    0.0302 C.2     1  UNL1        0.0000
   3240 C          21.3231   42.5462    0.0416 C.3     1  UNL1        0.0000
   3241 C          25.2926   28.9426   13.3139 C.2     1  UNL1        0.0000
   3242 C          14.2755   31.8448   13.3799 C.3     1  UNL1        0.0000
   3243 C          21.3627   35.3871    6.5247 C.ar    1  UNL1        0.0000
   3244 C          22.8006   32.9641    6.9438 C.ar    1  UNL1        0.0000
   3245 C          25.7759   41.7680    6.3074 C.3     1  UNL1        0.0000
   3246 C          18.6321   26.4067    7.1130 C.ar    1  UNL1        0.0000
   3247 C          27.5718   31.0135    1.2500 C.2     1  UNL1        0.0000
   3248 C          16.6796   37.2547   12.2726 C.3     1  UNL1        0.0000
   3249 C          31.8995   37.5049    1.0955 C.3    29  UNL29       0.0000
   3250 C          12.4329   30.7395   12.1288 C.ar    1  UNL1        0.0000
   3251 C          11.8600   40.4700    6.3973 C.3     1  UNL1        0.0000
   3252 C          32.5492   27.6646    7.0193 C.2     1  UNL1        0.0000
   3253 C          23.4155   34.0484    6.3447 C.ar    1  UNL1        0.0000
   3254 C          20.7466   34.2614    7.1206 C.ar    1  UNL1        0.0000
   3255 C          27.2299   30.0060   12.0508 C.3     1  UNL1        0.0000
   3256 C          17.0803   38.2149    1.1513 C.2    19  UNL19       0.0000
   3257 C          22.9317   23.4959   12.2271 C.ar    1  UNL1        0.0000
   3258 C          27.5004   29.6025    1.3173 C.2     1  UNL1        0.0000
   3259 N          20.6502   36.5492    6.3947 N.pl3   1  UNL1        0.0000
   3260 N          27.3774   28.9995    2.5366 N.pl3   1  UNL1        0.0000
   3261 N          26.7551   29.6321   10.8228 N.3     1  UNL1        0.0000
   3262 N          12.6102   39.3512    6.1587 N.3     1  UNL1        0.0000
   3263 N          27.8490   35.5336    7.5898 N.3     1  UNL1        0.0000
   3264 N          25.8804   25.9443    9.3726 N.pl3   1  UNL1        0.0000
   3265 O          27.3805   35.9578    5.0170 O.2     1  UNL1        0.0000
   3266 O          16.8001   32.2288    8.3466 O.3     1  UNL1        0.0000
   3267 O          23.9020   27.5910    9.9884 O.3     1  UNL1        0.0000
   3268 O          20.3153   40.6171    3.4189 O.2     1  UNL1        0.0000
   3269 O          21.6839   39.7784    5.0133 O.2     1  UNL1        0.0000
   3270 O          22.6393   28.5063    8.3588 O.3     1  UNL1        0.0000
   3271 O          28.7101   35.0069    3.4595 O.2     1  UNL1        0.0000
   3272 O          15.6310   33.3220    9.9460 O.3     1  UNL1        0.0000
   3273 O          26.0323   35.3166    2.6784 O.3     1  UNL1        0.0000
   3274 O          18.2870   32.8949   10.6216 O.3     1  UNL1        0.0000
   3275 O          27.4367   37.3386    2.5970 O.3     1  UNL1        0.0000
   3276 O          16.8077   30.9409   10.8207 O.3     1  UNL1        0.0000
   3277 O          21.2594   27.7756   10.6223 O.3     1  UNL1        0.0000
   3278 O          22.9573   40.4938    2.7143 O.3     1  UNL1        0.0000
   3279 O          22.4889   29.8925   10.8618 O.3     1  UNL1        0.0000
   3280 O          21.8084   38.3209    2.5698 O.3     1  UNL1        0.0000
   3281 O          24.6862   36.1606    5.1160 O.3     1  UNL1        0.0000
   3282 O          19.4998   32.0032    8.1810 O.3     1  UNL1        0.0000
   3283 O          26.4559   38.4954    4.8735 O.2     1  UNL1        0.0000
   3284 O          17.8103   29.6111    8.5822 O.3     1  UNL1        0.0000
   3285 O          22.9344   26.3016   12.3094 O.3     1  UNL1        0.0000
   3286 O          21.2386   41.8815    1.1320 O.3     1  UNL1        0.0000
   3287 O          24.7196   28.6319   12.2092 O.2     1  UNL1        0.0000
   3288 O          19.5555   39.4800    1.1181 O.3     1  UNL1        0.0000
   3289 O          24.5923   39.7433    4.8554 O.2     1  UNL1        0.0000
   3290 O          19.7891   28.5518    8.4354 O.3     1  UNL1        0.0000
   3291 O          22.8148   37.4193    5.1125 O.3     1  UNL1        0.0000
   3292 O          21.4850   30.9298    8.3256 O.3     1  UNL1        0.0000
   3293 O          29.5177   36.1224    1.0504 O.3     1  UNL1        0.0000
   3294 O          14.7705   32.2521   12.2811 O.3     1  UNL1        0.0000
   3295 O          27.7575   33.7704    1.1461 O.2     1  UNL1        0.0000
   3296 O          16.6752   34.4959   12.3101 O.2     1  UNL1        0.0000
   3297 O          24.4976   37.8070    2.8426 O.3     1  UNL1        0.0000
   3298 O          19.7568   30.4419   10.4993 O.3     1  UNL1        0.0000
   3299 O          26.9018   36.2393    0.0162 O.3     1  UNL1        0.0000
   3300 O          17.3755   31.9725   13.3668 O.3     1  UNL1        0.0000
   3301 TI         11.9703   25.1822   24.9489 Ti      1  UNL1        0.0000
   3302 TI         22.9718   28.2654   15.2573 Ti      1  UNL1        0.0000
   3303 TI         16.5162   21.8812   23.0316 Ti      1  UNL1        0.0000
   3304 TI         18.3785   31.5652   17.1706 Ti      1  UNL1        0.0000
   3305 TI         16.6893   32.4416   15.2123 Ti      1  UNL1        0.0000
   3306 TI         18.0052   20.7277   24.9940 Ti      1  UNL1        0.0000
   3307 TI         13.4103   23.8829   23.0436 Ti      1  UNL1        0.0000
   3308 TI         21.2639   29.3069   17.1146 Ti      1  UNL1        0.0000
   3309 H          18.5916   24.5661   20.5307 H       1  UNL1        0.0000
   3310 H          14.9314   18.8819   20.8554 H       1  UNL1        0.0000
   3311 H          20.0076   34.3635   19.3826 H       1  UNL1        0.0000
   3312 H          11.9650   29.2021   24.7702 H       1  UNL1        0.0000
   3313 H          22.8170   24.1355   15.5786 H       1  UNL1        0.0000
   3314 H           8.2218   23.5535   24.6290 H       1  UNL1        0.0000
   3315 H          26.6394   29.7588   15.4179 H       1  UNL1        0.0000
   3316 H          18.2516   16.5717   24.6987 H       1  UNL1        0.0000
   3317 H          12.7933   31.0424   15.5079 H       1  UNL1        0.0000
   3318 H          19.7156   26.5255   19.4325 H       1  UNL1        0.0000
   3319 H          14.9702   26.8537   20.8490 H       1  UNL1        0.0000
   3320 H          27.2589   21.0991   20.6849 H       1  UNL1        0.0000
   3321 H          12.8119   23.5518   26.7017 H       1  UNL1        0.0000
   3322 H          21.9337   29.7206   13.4347 H       1  UNL1        0.0000
   3323 H          15.3942   23.5557   24.6004 H       1  UNL1        0.0000
   3324 H          19.3071   29.8148   15.5731 H       1  UNL1        0.0000
   3325 H          18.6075   20.5358   19.5426 H       1  UNL1        0.0000
   3326 H          16.2258   32.7172   20.6825 H       1  UNL1        0.0000
   3327 H           8.9184   26.9733   22.5603 H       1  UNL1        0.0000
   3328 H          25.8324   26.3330   17.7243 H       1  UNL1        0.0000
   3329 H          11.3677   25.3262   19.4351 H       1  UNL1        0.0000
   3330 H          13.7685   34.6246   17.7130 H       1  UNL1        0.0000
   3331 H          14.9099   29.0479   19.9299 H       1  UNL1        0.0000
   3332 H          16.3155   29.8161   19.2218 H       1  UNL1        0.0000
   3333 H          16.5165   35.6606   15.9927 H      30  UNK30       0.0000
   3334 H          22.7973   22.0843   16.7837 H       1  UNL1        0.0000
   3335 H          22.4168   22.6015   23.4117 H       1  UNL1        0.0000
   3336 H          21.0740   21.7901   24.1903 H       1  UNL1        0.0000
   3337 H           8.8741   31.9363   19.7185 H       1  UNL1        0.0000
   3338 H          23.5044   31.1970   18.9207 H      31  UNK31       0.0000
   3339 H          23.0357   28.2931   21.9855 H       1  UNL1        0.0000
   3340 H          22.5280   28.5533   20.3247 H       1  UNL1        0.0000
   3341 H          21.9993   17.9726   22.9731 H       1  UNL1        0.0000
   3342 H          20.6631   18.9610   23.5404 H       1  UNL1        0.0000
   3343 C          23.6647   27.7742   18.0994 C.2     1  UNL1        0.0000
   3344 C          11.1173   25.5384   22.1346 C.3     1  UNL1        0.0000
   3345 C          18.8835   20.3053   22.1508 C.3     1  UNL1        0.0000
   3346 C          15.9188   32.9887   18.0511 C.2     1  UNL1        0.0000
   3347 C          24.5066   27.2079   19.1636 C.2     1  UNL1        0.0000
   3348 C          10.2170   26.1079   21.0946 C.ar    1  UNL1        0.0000
   3349 C          19.7300   19.6501   21.1402 C.ar    1  UNL1        0.0000
   3350 C          15.0773   33.6118   19.1114 C.2     1  UNL1        0.0000
   3351 C          24.2145   27.3997   20.5537 C.3     1  UNL1        0.0000
   3352 C          10.4945   25.9033   19.7257 C.ar    1  UNL1        0.0000
   3353 C          20.8223   18.7917   21.4961 C.ar    1  UNL1        0.0000
   3354 C          13.9926   34.4455   18.7608 C.3     1  UNL1        0.0000
   3355 C          15.3839   33.3649   20.4453 C.3     1  UNL1        0.0000
   3356 C          19.4447   19.8809   19.7744 C.ar    1  UNL1        0.0000
   3357 C          25.6455   26.4582   18.7883 C.3     1  UNL1        0.0000
   3358 C           9.1043   26.8389   21.4965 C.ar    1  UNL1        0.0000
   3359 C          17.9941   27.7992   19.5277 C.ar    1  UNL1        0.0000
   3360 C          16.7100   25.6121   20.7374 C.ar    1  UNL1        0.0000
   3361 C          21.7624   33.1321   19.3944 C.2     1  UNL1        0.0000
   3362 C          13.1572   20.0799   20.8302 C.ar    1  UNL1        0.0000
   3363 C          22.9150   24.2127   13.4432 C.ar    1  UNL1        0.0000
   3364 C          16.5995   36.5495   13.4958 C.2     1  UNL1        0.0000
   3365 C          21.8422   22.1922   26.6908 C.2     1  UNL1        0.0000
   3366 C           8.2439   23.6391   26.7659 C.ar    1  UNL1        0.0000
   3367 C          18.7075   28.8796   18.8258 C.3     1  UNL1        0.0000
   3368 C          16.0221   24.4633   21.3976 C.3     1  UNL1        0.0000
   3369 C          21.0884   32.0885   18.6135 C.2     1  UNL1        0.0000
   3370 C          13.8035   21.1758   21.6044 C.3     1  UNL1        0.0000
   3371 C          22.9625   25.7018   13.4423 C.3     1  UNL1        0.0000
   3372 C          16.5868   35.0815   13.4537 C.2     1  UNL1        0.0000
   3373 C          20.5563   21.4779   26.7260 C.2     1  UNL1        0.0000
   3374 C           9.5393   24.3801   26.7920 C.3     1  UNL1        0.0000
   3375 C          16.6265   27.9224   19.9368 C.ar    1  UNL1        0.0000
   3376 C          18.0643   25.4993   20.3559 C.ar    1  UNL1        0.0000
   3377 C          21.0396   34.3033   19.7195 C.3     1  UNL1        0.0000
   3378 C          13.8958   18.9420   20.5252 C.ar    1  UNL1        0.0000
   3379 C          22.8355   23.5488   14.6622 C.ar    1  UNL1        0.0000
   3380 C          11.9434   29.7900   25.6847 C.3     1  UNL1        0.0000
   3381 C          27.1633   30.0402   14.5077 C.3     1  UNL1        0.0000
   3382 C           7.6967   23.2748   25.5409 C.ar    1  UNL1        0.0000
   3383 C           7.1237   33.0053   19.8094 C.3     1  UNL1        0.0000
   3384 C          27.8129   20.1999   20.4314 C.2     1  UNL1        0.0000
   3385 C          18.6793   26.5837   19.7569 C.ar    1  UNL1        0.0000
   3386 C          16.0103   26.7967   20.5328 C.ar    1  UNL1        0.0000
   3387 C          22.4936   22.5413   25.4629 C.3     1  UNL1        0.0000
   3388 C          12.3441   30.7501   14.5634 C.ar    1  UNL1        0.0000
   3389 C          18.1954   16.0312   25.6392 C.ar    1  UNL1        0.0000
   3390 C          22.7641   22.1378   14.7294 C.ar    1  UNL1        0.0000
   3391 N          15.9139   29.0845   19.8068 N.pl3   1  UNL1        0.0000
   3392 N          22.6411   21.5348   15.9488 N.pl3   1  UNL1        0.0000
   3393 N          22.0189   22.1674   24.2349 N.3     1  UNL1        0.0000
   3394 N           7.8739   31.8865   19.5708 N.3     1  UNL1        0.0000
   3395 N          23.1127   28.0688   21.0019 N.3     1  UNL1        0.0000
   3396 N          21.1442   18.4796   22.7848 N.pl3   1  UNL1        0.0000
   3397 O          22.6443   28.4931   18.4291 O.2     1  UNL1        0.0000
   3398 O          12.0639   24.7640   21.7587 O.3     1  UNL1        0.0000
   3399 O          19.1658   20.1263   23.4005 O.3     1  UNL1        0.0000
   3400 O          15.5790   33.1523   16.8310 O.2     1  UNL1        0.0000
   3401 O          16.9477   32.3137   18.4254 O.2     1  UNL1        0.0000
   3402 O          17.9030   21.0415   21.7709 O.3     1  UNL1        0.0000
   3403 O          23.9739   27.5422   16.8716 O.2     1  UNL1        0.0000
   3404 O          10.8947   25.8573   23.3581 O.3     1  UNL1        0.0000
   3405 O          21.2960   27.8519   16.0905 O.3     1  UNL1        0.0000
   3406 O          13.5507   25.4302   24.0337 O.3     1  UNL1        0.0000
   3407 O          22.7005   29.8738   16.0091 O.3     1  UNL1        0.0000
   3408 O          12.0715   23.4762   24.2328 O.3     1  UNL1        0.0000
   3409 O          16.5232   20.3109   24.0344 O.3     1  UNL1        0.0000
   3410 O          18.2210   33.0291   16.1265 O.3     1  UNL1        0.0000
   3411 O          17.7527   22.4278   24.2739 O.3     1  UNL1        0.0000
   3412 O          17.0722   30.8562   15.9819 O.3     1  UNL1        0.0000
   3413 O          19.9499   28.6959   18.5281 O.3     1  UNL1        0.0000
   3414 O          14.7635   24.5385   21.5931 O.3     1  UNL1        0.0000
   3415 O          21.7196   31.0307   18.2856 O.2     1  UNL1        0.0000
   3416 O          13.0741   22.1464   21.9943 O.3     1  UNL1        0.0000
   3417 O          18.1982   18.8369   25.7215 O.3     1  UNL1        0.0000
   3418 O          16.5023   34.4167   14.5441 O.2     1  UNL1        0.0000
   3419 O          19.9833   21.1672   25.6213 O.2     1  UNL1        0.0000
   3420 O          14.8192   32.0153   14.5302 O.3     1  UNL1        0.0000
   3421 O          19.8560   32.2785   18.2675 O.2     1  UNL1        0.0000
   3422 O          15.0528   21.0871   21.8475 O.3     1  UNL1        0.0000
   3423 O          18.0786   29.9546   18.5246 O.3     1  UNL1        0.0000
   3424 O          16.7487   23.4650   21.7377 O.3     1  UNL1        0.0000
   3425 O          24.7814   28.6577   14.4625 O.2     1  UNL1        0.0000
   3426 O          10.0342   24.7873   25.6933 O.3     1  UNL1        0.0000
   3427 O          23.0213   26.3056   14.5582 O.3     1  UNL1        0.0000
   3428 O          11.9389   27.0312   25.7222 O.2     1  UNL1        0.0000
   3429 O          19.7613   30.3423   16.2548 O.3     1  UNL1        0.0000
   3430 O          15.0206   22.9772   23.9114 O.3     1  UNL1        0.0000
   3431 O          22.1656   28.7746   13.4283 O.3     1  UNL1        0.0000
   3432 O          12.6392   24.5078   26.7789 O.3     1  UNL1        0.0000
   3433 TI          7.2340   17.7175   38.3610 Ti      1  UNL1        0.0000
   3434 TI         18.2355   20.8007   28.6694 Ti      1  UNL1        0.0000
   3435 TI         11.7799   14.4165   36.4437 Ti      1  UNL1        0.0000
   3436 TI         13.6423   24.1004   30.5827 Ti      1  UNL1        0.0000
   3437 TI         11.9530   24.9769   28.6244 Ti      1  UNL1        0.0000
   3438 TI         13.2689   13.2630   38.4061 Ti      1  UNL1        0.0000
   3439 TI          8.6740   16.4182   36.4557 Ti      1  UNL1        0.0000
   3440 TI         16.5276   21.8422   30.5267 Ti      1  UNL1        0.0000
   3441 H          13.8553   17.1014   33.9428 H       1  UNL1        0.0000
   3442 H          10.1951   11.4172   34.2675 H       1  UNL1        0.0000
   3443 H          15.2714   26.8988   32.7947 H       1  UNL1        0.0000
   3444 H           7.2288   21.7373   38.1823 H      30  UNK30       0.0000
   3445 H          18.0808   16.6707   28.9907 H       1  UNL1        0.0000
   3446 H           3.4855   16.0888   38.0411 H       1  UNL1        0.0000
   3447 H          21.9031   22.2940   28.8300 H       1  UNL1        0.0000
   3448 H          13.5154    9.1070   38.1108 H      28  UNL28       0.0000
   3449 H           8.0571   23.5776   28.9200 H       1  UNL1        0.0000
   3450 H          14.9793   19.0608   32.8446 H       1  UNL1        0.0000
   3451 H          10.2340   19.3890   34.2611 H       1  UNL1        0.0000
   3452 H          22.5227   13.6344   34.0970 H       1  UNL1        0.0000
   3453 H           8.0756   16.0870   40.1138 H       1  UNL1        0.0000
   3454 H          17.1974   22.2559   26.8468 H       1  UNL1        0.0000
   3455 H          10.6579   16.0909   38.0125 H       1  UNL1        0.0000
   3456 H          14.5708   22.3500   28.9852 H       1  UNL1        0.0000
   3457 H          13.8712   13.0711   32.9548 H       1  UNL1        0.0000
   3458 H          11.4895   25.2525   34.0946 H       1  UNL1        0.0000
   3459 H           4.1821   19.5086   35.9724 H       1  UNL1        0.0000
   3460 H          21.0962   18.8683   31.1364 H       1  UNL1        0.0000
   3461 H           6.6315   17.8615   32.8472 H       1  UNL1        0.0000
   3462 H           9.0322   27.1598   31.1251 H       1  UNL1        0.0000
   3463 H          10.1736   21.5832   33.3420 H       1  UNL1        0.0000
   3464 H          11.5792   22.3513   32.6339 H       1  UNL1        0.0000
   3465 H          11.7802   28.1959   29.4048 H      32  UNK32       0.0000
   3466 H          18.0610   14.6196   30.1958 H       1  UNL1        0.0000
   3467 H          17.6805   15.1368   36.8238 H       1  UNL1        0.0000
   3468 H          16.3377   14.3254   37.6024 H       1  UNL1        0.0000
   3469 H           4.1378   24.4716   33.1306 H       1  UNL1        0.0000
   3470 H          18.7681   23.7323   32.3328 H      33  UNK33       0.0000
   3471 H          18.2994   20.8284   35.3976 H       1  UNL1        0.0000
   3472 H          17.7917   21.0885   33.7368 H       1  UNL1        0.0000
   3473 H          17.2630   10.5079   36.3852 H       1  UNL1        0.0000
   3474 H          15.9268   11.4963   36.9525 H       1  UNL1        0.0000
   3475 C          18.9284   20.3094   31.5115 C.2     1  UNL1        0.0000
   3476 C           6.3810   18.0737   35.5467 C.3     1  UNL1        0.0000
   3477 C          14.1472   12.8405   35.5629 C.3     1  UNL1        0.0000
   3478 C          11.1825   25.5240   31.4632 C.2     1  UNL1        0.0000
   3479 C          19.7704   19.7432   32.5757 C.2     1  UNL1        0.0000
   3480 C           5.4807   18.6431   34.5067 C.ar    1  UNL1        0.0000
   3481 C          14.9937   12.1854   34.5524 C.ar    1  UNL1        0.0000
   3482 C          10.3410   26.1471   32.5235 C.2     1  UNL1        0.0000
   3483 C          19.4783   19.9350   33.9658 C.3     1  UNL1        0.0000
   3484 C           5.7583   18.4385   33.1378 C.ar    1  UNL1        0.0000
   3485 C          16.0860   11.3269   34.9082 C.ar    1  UNL1        0.0000
   3486 C           9.2564   26.9807   32.1729 C.3     1  UNL1        0.0000
   3487 C          10.6476   25.9002   33.8574 C.3     1  UNL1        0.0000
   3488 C          14.7084   12.4161   33.1865 C.ar    1  UNL1        0.0000
   3489 C          20.9092   18.9935   32.2004 C.3     1  UNL1        0.0000
   3490 C           4.3681   19.3742   34.9086 C.ar    1  UNL1        0.0000
   3491 C          13.2578   20.3345   32.9398 C.ar    1  UNL1        0.0000
   3492 C          11.9737   18.1474   34.1495 C.ar    1  UNL1        0.0000
   3493 C          17.0261   25.6674   32.8065 C.2     1  UNL1        0.0000
   3494 C           8.4210   12.6151   34.2423 C.ar    1  UNL1        0.0000
   3495 C          18.1788   16.7479   26.8553 C.ar    1  UNL1        0.0000
   3496 C          11.8632   29.0848   26.9079 C.2     1  UNL1        0.0000
   3497 C          17.1059   14.7275   40.1030 C.2     1  UNL1        0.0000
   3498 C           3.5076   16.1744   40.1780 C.2     1  UNL1        0.0000
   3499 C          13.9713   21.4149   32.2379 C.3     1  UNL1        0.0000
   3500 C          11.2858   16.9986   34.8097 C.3     1  UNL1        0.0000
   3501 C          16.3522   24.6238   32.0256 C.2     1  UNL1        0.0000
   3502 C           9.0672   13.7110   35.0165 C.3     1  UNL1        0.0000
   3503 C          18.2263   18.2371   26.8544 C.3     1  UNL1        0.0000
   3504 C          11.8506   27.6168   26.8658 C.2     1  UNL1        0.0000
   3505 C          15.8201   14.0132   40.1381 C.2     1  UNL1        0.0000
   3506 C           4.8030   16.9153   40.2041 C.2     1  UNL1        0.0000
   3507 C          11.8902   20.4577   33.3489 C.ar    1  UNL1        0.0000
   3508 C          13.3280   18.0346   33.7680 C.ar    1  UNL1        0.0000
   3509 C          16.3034   26.8385   33.1317 C.3     1  UNL1        0.0000
   3510 C           9.1596   11.4773   33.9373 C.ar    1  UNL1        0.0000
   3511 C          18.0992   16.0840   28.0743 C.ar    1  UNL1        0.0000
   3512 C           7.2071   22.3253   39.0968 C.3    34  UNL34       0.0000
   3513 C          22.4270   22.5755   27.9198 C.3     1  UNL1        0.0000
   3514 C           2.9604   15.8101   38.9530 C.2     1  UNL1        0.0000
   3515 C           2.3874   25.5406   33.2215 C.3     1  UNL1        0.0000
   3516 C          23.0766   12.7351   33.8435 C.2     1  UNL1        0.0000
   3517 C          13.9430   19.1190   33.1690 C.ar    1  UNL1        0.0000
   3518 C          11.2741   19.3319   33.9449 C.ar    1  UNL1        0.0000
   3519 C          17.7573   15.0766   38.8750 C.3     1  UNL1        0.0000
   3520 C           7.6078   23.2854   27.9755 C.ar    1  UNL1        0.0000
   3521 C          13.4592    8.5665   39.0513 C.2    28  UNL28       0.0000
   3522 C          18.0279   14.6730   28.1415 C.ar    1  UNL1        0.0000
   3523 N          11.1776   21.6198   33.2189 N.pl3   1  UNL1        0.0000
   3524 N          17.9049   14.0700   29.3609 N.pl3   1  UNL1        0.0000
   3525 N          17.2826   14.7027   37.6471 N.3     1  UNL1        0.0000
   3526 N           3.1377   24.4218   32.9830 N.3     1  UNL1        0.0000
   3527 N          18.3765   20.6041   34.4140 N.3     1  UNL1        0.0000
   3528 N          16.4079   11.0148   36.1969 N.pl3   1  UNL1        0.0000
   3529 O          17.9080   21.0284   31.8413 O.2     1  UNL1        0.0000
   3530 O           7.3276   17.2993   35.1708 O.3     1  UNL1        0.0000
   3531 O          14.4295   12.6616   36.8126 O.3     1  UNL1        0.0000
   3532 O          10.8428   25.6876   30.2431 O.2     1  UNL1        0.0000
   3533 O          12.2114   24.8489   31.8375 O.2     1  UNL1        0.0000
   3534 O          13.1668   13.5768   35.1830 O.3     1  UNL1        0.0000
   3535 O          19.2376   20.0775   30.2837 O.2     1  UNL1        0.0000
   3536 O           6.1585   18.3926   36.7702 O.3     1  UNL1        0.0000
   3537 O          16.5598   20.3872   29.5026 O.3     1  UNL1        0.0000
   3538 O           8.8144   17.9655   37.4458 O.3     1  UNL1        0.0000
   3539 O          17.9642   22.4091   29.4212 O.3     1  UNL1        0.0000
   3540 O           7.3352   16.0115   37.6449 O.3     1  UNL1        0.0000
   3541 O          11.7869   12.8461   37.4465 O.3     1  UNL1        0.0000
   3542 O          13.4847   25.5643   29.5386 O.3     1  UNL1        0.0000
   3543 O          13.0164   14.9631   37.6860 O.3     1  UNL1        0.0000
   3544 O          12.3359   23.3914   29.3940 O.3     1  UNL1        0.0000
   3545 O          15.2137   21.2312   31.9402 O.3     1  UNL1        0.0000
   3546 O          10.0272   17.0737   35.0052 O.3     1  UNL1        0.0000
   3547 O          16.9834   23.5659   31.6977 O.2     1  UNL1        0.0000
   3548 O           8.3378   14.6817   35.4064 O.3     1  UNL1        0.0000
   3549 O          13.4619   11.3721   39.1336 O.3     1  UNL1        0.0000
   3550 O          11.7661   26.9520   27.9563 O.2     1  UNL1        0.0000
   3551 O          15.2471   13.7025   39.0334 O.2     1  UNL1        0.0000
   3552 O          10.0830   24.5505   27.9423 O.3     1  UNL1        0.0000
   3553 O          15.1198   24.8138   31.6796 O.2     1  UNL1        0.0000
   3554 O          10.3166   13.6224   35.2596 O.3     1  UNL1        0.0000
   3555 O          13.3423   22.4898   31.9367 O.3     1  UNL1        0.0000
   3556 O          12.0124   16.0003   35.1498 O.3     1  UNL1        0.0000
   3557 O          20.0452   21.1930   27.8746 O.2     1  UNL1        0.0000
   3558 O           5.2980   17.3226   39.1054 O.2     1  UNL1        0.0000
   3559 O          18.2850   18.8409   27.9703 O.3     1  UNL1        0.0000
   3560 O           7.2027   19.5664   39.1343 O.3     1  UNL1        0.0000
   3561 O          15.0250   22.8776   29.6669 O.3     1  UNL1        0.0000
   3562 O          10.2843   15.5125   37.3235 O.3     1  UNL1        0.0000
   3563 O          17.4293   21.3099   26.8404 O.3     1  UNL1        0.0000
   3564 O           7.9029   17.0431   40.1910 O.3     1  UNL1        0.0000
@<TRIPOS>BOND
     1  2903  2794    1
     2  2903  2774    1
     3  1715  1606    1
     4  1715  1586    1
     5   923   814    1
     6   923   794    1
     7  2507  2398    1
     8  2507  2378    1
     9   131    22    1
    10   131     2    1
    11  3299  3190    1
    12  3299  3170    1
    13  1319  1210    1
    14  1319  1190    1
    15  2111  2002    1
    16  2111  1982    1
    17   527   418    1
    18   527   398    1
    19    71    63    2
    20    71   127    1
    21  3239  3231    2
    22  3239  3295    1
    23  2447  2439    2
    24  2447  2503    1
    25   863   855    2
    26   863   919    1
    27  2843  2835    2
    28  2843  2899    1
    29  1259  1251    2
    30  1259  1315    1
    31  2051  2043    2
    32  2051  2107    1
    33   467   459    2
    34   467   523    1
    35  1655  1647    2
    36  1655  1711    1
    37   459   475    1
    38  1251  1267    1
    39    63    79    1
    40  2439  2455    1
    41   855   871    1
    42  1647  1663    1
    43  2043  2059    1
    44  2835  2851    1
    45  3231  3247    1
    46  2052  2044    1
    47  2052  2098    1
    48    72    64    2
    49    72   118    1
    50  1260  1252    2
    51  1260  1306    1
    52  2448  2440    2
    53  2448  2494    1
    54  3240  3232    1
    55  3240  3286    1
    56   864   856    1
    57   864   910    1
    58   468   460    2
    59   468   514    1
    60  2844  2836    2
    61  2844  2890    1
    62  1656  1648    2
    63  1656  1702    1
    64  1252  1674    1
    65  2440  2862    1
    66    64   486    1
    67  2836  3258    1
    68   460   882    1
    69  1648  2070    1
    70  2105  1982    1
    71   521   398    1
    72  2897  2774    1
    73   917   794    1
    74  1313  1190    1
    75  3293  3170    1
    76   125     2    1
    77  2501  2378    1
    78  1709  1586    1
    79  2061  3256    2
    80  2061  1995    1
    81  3249  3183    1
    82  2457  2391    1
    83   477  1672    2
    84   477   411    1
    85    81  1276    2
    86    81    15    1
    87  2853  2787    1
    88   873  2068    2
    89   873   807    1
    90  1269  2464    2
    91  1269  1203    1
    92  1665  2860    2
    93  1665  1599    1
    94  3288  3173    1
    95   912   797    1
    96  1704  1589    1
    97  2496  2381    1
    98   120     5    1
    99  2100  1985    1
   100  2892  2777    1
   101  1308  1193    1
   102   516   401    1
   103   118     5    1
   104  2494  2381    1
   105  3286  3173    1
   106  1306  1193    1
   107  2098  1985    1
   108   910   797    1
   109  1702  1589    1
   110  2890  2777    1
   111   514   401    1
   112   523   398    1
   113  2899  2774    1
   114  1711  1586    1
   115  3295  3170    1
   116   127     2    1
   117  1315  1190    1
   118  2107  1982    1
   119  2503  2378    1
   120   919   794    1
   121  2068  1997    1
   122  2464  2393    1
   123  1276  1205    1
   124    88    17    1
   125  1672  1601    1
   126  2860  2789    1
   127   484   413    1
   128  3256  3185    1
   129   880   809    1
   130  2059  2070    2
   131  2059  1993    1
   132  2851  2862    2
   133  2851  2785    1
   134   475   486    2
   135   475   409    1
   136    79    90    1
   137    79    13    1
   138  1663  1674    2
   139  1663  1597    1
   140  2455  2466    1
   141  2455  2389    1
   142   871   882    2
   143   871   805    1
   144  1267  1278    1
   145  1267  1201    1
   146  3247  3258    2
   147  3247  3181    1
   148  1278  1280    2
   149   882   884    1
   150  2466  2468    2
   151  3258  3260    1
   152  1674  1676    1
   153    90    92    2
   154  2862  2864    1
   155   486   488    1
   156  2070  2072    1
   157  3173  3280    1
   158  3173  3278    1
   159  3173  3268    1
   160  2381  2488    1
   161  2381  2486    1
   162  2381  2476    1
   163  1985  2092    1
   164  1985  2090    1
   165  1985  2080    1
   166   401   508    1
   167   401   506    1
   168   401   496    1
   169  1193  1300    1
   170  1193  1298    1
   171  1193  1288    1
   172  1589  1696    1
   173  1589  1694    1
   174  1589  1684    1
   175   797   904    1
   176   797   902    1
   177   797   892    1
   178     5   112    1
   179     5   110    1
   180     5   100    1
   181  2777  2884    1
   182  2777  2882    1
   183  2777  2872    1
   184  1586  1691    1
   185  1586  1689    1
   186  1586  1687    1
   187     2   107    1
   188     2   105    1
   189     2   103    1
   190  1982  2087    1
   191  1982  2085    1
   192  1982  2083    1
   193   794   899    1
   194   794   897    1
   195   794   895    1
   196   398   503    1
   197   398   501    1
   198   398   499    1
   199  3170  3275    1
   200  3170  3273    1
   201  3170  3271    1
   202  2774  2879    1
   203  2774  2877    1
   204  2774  2875    1
   205  2378  2483    1
   206  2378  2481    1
   207  2378  2479    1
   208  1190  1295    1
   209  1190  1293    1
   210  1190  1291    1
   211  2400  2505    1
   212  2004  2109    1
   213  1212  1317    1
   214  2796  2901    1
   215   816   921    1
   216  3192  3297    1
   217    24   129    1
   218   420   525    1
   219  1608  1713    1
   220  1280  1222    1
   221  1676  1221    1
   222  1676  1618    1
   223    92    34    1
   224   488    33    1
   225   488   430    1
   226  2864  2409    1
   227  2864  2806    1
   228  2468  2410    1
   229  2072  1617    1
   230  2072  2014    1
   231   884   429    1
   232   884   826    1
   233  3260  2805    1
   234  3260  3202    1
   235  2092  1984    1
   236   904   796    1
   237  1300  1192    1
   238  2884  2776    1
   239   508   400    1
   240  3280  3172    1
   241   112     4    1
   242  2488  2380    1
   243  1696  1588    1
   244  2087  1988    1
   245   899   800    1
   246  3275  3176    1
   247   503   404    1
   248  2879  2780    1
   249  1691  1592    1
   250  2483  2384    1
   251   107     8    1
   252  1295  1196    1
   253  2877  2780    1
   254   501   404    1
   255  3273  3176    1
   256  1293  1196    1
   257  2481  2384    1
   258   897   800    1
   259   105     8    1
   260  1689  1592    1
   261  2085  1988    1
   262  1298  1192    1
   263   110     4    1
   264  2090  1984    1
   265   902   796    1
   266   506   400    1
   267  2882  2776    1
   268  3278  3172    1
   269  1694  1588    1
   270  2486  2380    1
   271  3297  3176    1
   272  1317  1196    1
   273  2505  2384    1
   274   129     8    1
   275  1713  1592    1
   276  2901  2780    1
   277   525   404    1
   278   921   800    1
   279  2109  1988    1
   280   892   838    1
   281  2476  2422    1
   282  2080  2026    1
   283  1288  1234    1
   284  2872  2818    1
   285  3268  3214    1
   286   100    46    1
   287  1684  1630    1
   288   496   442    1
   289  2083  2023    1
   290  2875  2815    1
   291   499   439    1
   292   895   835    1
   293  1291  1231    1
   294  3271  3211    1
   295  1687  1627    1
   296   103    43    1
   297  2479  2419    1
   298  1592  1699    1
   299  1592  1681    1
   300  1592  1697    1
   301   404   511    1
   302   404   493    1
   303   404   509    1
   304   800   907    1
   305   800   889    1
   306   800   905    1
   307  1988  2095    1
   308  1988  2077    1
   309  1988  2093    1
   310  2780  2887    1
   311  2780  2869    1
   312  2780  2885    1
   313  3176  3283    1
   314  3176  3265    1
   315  3176  3281    1
   316  2384  2491    1
   317  2384  2473    1
   318  2384  2489    1
   319  1196  1303    1
   320  1196  1285    1
   321  1196  1301    1
   322     8   115    1
   323     8    97    1
   324     8   113    1
   325   796   913    1
   326   796   893    1
   327   796   915    1
   328  2776  2893    1
   329  2776  2873    1
   330  2776  2895    1
   331  2380  2497    1
   332  2380  2477    1
   333  2380  2499    1
   334  1192  1309    1
   335  1192  1289    1
   336  1192  1311    1
   337   400   517    1
   338   400   497    1
   339   400   519    1
   340  3172  3289    1
   341  3172  3269    1
   342  3172  3291    1
   343  1588  1705    1
   344  1588  1685    1
   345  1588  1707    1
   346  1984  2101    1
   347  1984  2081    1
   348  1984  2103    1
   349     4   121    1
   350     4   101    1
   351     4   123    1
   352   426   450    1
   353  2406  2430    1
   354  3198  3222    1
   355   822   846    1
   356    30    54    1
   357  1218  1242    1
   358  1614  1638    1
   359  2802  2826    1
   360  2010  2034    1
   361    28    57    1
   362  2800  2829    1
   363  1612  1641    1
   364  2008  2037    1
   365   820   849    1
   366  3196  3225    1
   367   424   453    1
   368  1216  1245    1
   369  2404  2433    1
   370   442   497    1
   371   442   446    1
   372  2818  2873    1
   373  2818  2822    1
   374  1630  1685    1
   375  1630  1634    1
   376  1234  1289    1
   377  1234  1238    1
   378  2422  2477    1
   379  2422  2426    1
   380   838   893    1
   381   838   842    2
   382    46   101    1
   383    46    50    1
   384  2026  2081    1
   385  2026  2030    2
   386  3214  3269    1
   387  3214  3218    2
   388    43    97    1
   389    43    47    1
   390  2419  2473    1
   391  2419  2423    2
   392  1231  1285    1
   393  1231  1235    1
   394  2815  2869    1
   395  2815  2819    2
   396  2023  2077    1
   397  2023  2027    1
   398   835   889    1
   399   835   839    1
   400  3211  3265    1
   401  3211  3215    2
   402   439   493    1
   403   439   443    1
   404  1627  1681    1
   405  1627  1631    1
   406   913   861    1
   407  3289  3237    1
   408  2497  2445    1
   409   121    69    1
   410  1309  1257    1
   411   517   465    1
   412  2101  2049    1
   413  1705  1653    1
   414  2893  2841    1
   415  2887  2841    1
   416  1303  1257    1
   417  2095  2049    1
   418  1699  1653    1
   419   907   861    1
   420   115    69    1
   421  2491  2445    1
   422   511   465    1
   423  3283  3237    1
   424  2499  2443    1
   425   519   463    1
   426   915   859    1
   427  1707  1651    1
   428  3291  3235    1
   429   123    67    1
   430  1311  1255    1
   431  2895  2839    1
   432  2103  2047    1
   433  2489  2443    1
   434   113    67    1
   435  2093  2047    1
   436  2885  2839    1
   437   509   463    1
   438  1301  1255    1
   439  3281  3235    1
   440   905   859    1
   441  1697  1651    1
   442  1257  1249    1
   443  2445  2437    2
   444  2049  2041    2
   445   465   457    1
   446  3237  3229    2
   447   861   853    2
   448  1653  1645    1
   449    69    61    1
   450  2841  2833    2
   451   450   446   ar
   452   450   848   ar
   453  1242  1238   ar
   454  1242  1640   ar
   455  2430  2426   ar
   456  2430  2828   ar
   457    54    50   ar
   458    54   452   ar
   459  2826  2822   ar
   460  2826  3224   ar
   461  3222  3218    1
   462  1638  1634   ar
   463  1638  2036   ar
   464  2034  2030    1
   465   846   842    1
   466    57    47   ar
   467    57  1240   ar
   468  2829  2819    1
   469  2433  2423    1
   470  2037  2027   ar
   471  2037  3220   ar
   472   453   443   ar
   473   453  1636   ar
   474  3225  3215    1
   475  1245  1235   ar
   476  1245  2428   ar
   477   849   839   ar
   478   849  2032   ar
   479  1641  1631   ar
   480  1641  2824   ar
   481    67    59    1
   482   463   455    1
   483  2047  2039    1
   484  2839  2831    1
   485  3235  3227    1
   486  1651  1643    1
   487  1255  1247    1
   488   859   851    1
   489  2443  2435    1
   490   830  2074    1
   491    38  1282    1
   492   434  1678    1
   493  1226  2470    1
   494  1622  2866    1
   495  2018  3262    1
   496  2030  2035    1
   497    50    55   ar
   498   446   451   ar
   499   842   847    1
   500  2822  2827   ar
   501  1634  1639   ar
   502  3218  3223    1
   503  1238  1243   ar
   504  2426  2431   ar
   505  3215  3219    1
   506   839   843   ar
   507   443   447   ar
   508  1631  1635   ar
   509  2819  2823    1
   510  1235  1239   ar
   511  2423  2427    1
   512    47    51   ar
   513  2027  2031   ar
   514  1220  1279    1
   515   428   487    1
   516  2804  2863    1
   517  2408  2467    1
   518  3200  3259    1
   519    32    91    1
   520   824   883    1
   521  1616  1675    1
   522  2012  2071    1
   523  3179  3245    1
   524  2783  2849    1
   525   803   869    1
   526  1595  1661    1
   527   407   473    1
   528  1991  2057    1
   529  2387  2453    1
   530    11    77    1
   531  1199  1265    1
   532  1249  1265   ar
   533  1249  2459   ar
   534   853   869    1
   535   853  2063    1
   536  2833  2849    1
   537  1645  1661   ar
   538  1645  2855   ar
   539  2437  2453    1
   540  3229  3245    1
   541    61    77   ar
   542    61  1271   ar
   543   457   473   ar
   544   457  1667   ar
   545  2041  2057    1
   546  2041  3251    1
   547  3186  3253    1
   548  2394  2461    1
   549   810   877    1
   550  2790  2857    1
   551  1602  1669    1
   552  1206  1273    1
   553   414   481    1
   554  1998  2065    1
   555    18    85    1
   556   821   844    1
   557  2009  2032    1
   558   425   448    1
   559  1217  1240    1
   560    29    52    1
   561  1613  1636    1
   562  3197  3220    1
   563  2801  2824    1
   564  2405  2428    1
   565  2831  2857   ar
   566  2831  2847   ar
   567  1643  1669   ar
   568  1643  1659   ar
   569    59    85   ar
   570    59    75   ar
   571  2039  2065   ar
   572  2039  2055   ar
   573  1247  1273   ar
   574  1247  1263   ar
   575   851   877   ar
   576   851   867   ar
   577   455   481   ar
   578   455   471   ar
   579  3227  3253   ar
   580  3227  3243   ar
   581  2435  2461   ar
   582  2435  2451   ar
   583    25    56    1
   584  3193  3224    1
   585  2797  2828    1
   586  1609  1640    1
   587   421   452    1
   588  2005  2036    1
   589  1213  1244    1
   590  2401  2432    1
   591   817   848    1
   592  3262  3205    1
   593  3262  3251    1
   594    94    37    1
   595    94    83    2
   596  2074  2017    1
   597  2074  2063    1
   598  2866  2809    1
   599  2866  2855    1
   600  2470  2413    1
   601  2470  2459    1
   602   886   829    1
   603   886   875    1
   604  1678  1621    1
   605  1678  1667    1
   606  1282  1225    1
   607  1282  1271    1
   608   490   433    1
   609   490   479    2
   610  2849  3252    2
   611    77   480   ar
   612  1265  1668   ar
   613  2453  2856    2
   614  1661  2064   ar
   615   473   876   ar
   616   844   840    1
   617  2032  2028   ar
   618    52    48    1
   619   448   444    1
   620  3220  3216   ar
   621  1240  1236   ar
   622  1636  1632   ar
   623  2428  2424   ar
   624  2824  2820   ar
   625  2065  2056   ar
   626  2857  2848   ar
   627  1273  1264   ar
   628   481   472   ar
   629   877   868   ar
   630  2461  2452   ar
   631  3253  3244   ar
   632    85    76   ar
   633  1669  1660   ar
   634   452   445   ar
   635    56    49    1
   636  3224  3217   ar
   637  2432  2425    1
   638  2036  2029   ar
   639  1244  1237    1
   640  1640  1633   ar
   641   848   841   ar
   642  2828  2821   ar
   643  1279  1219    1
   644  1279  1263    1
   645  1675  1615    1
   646  1675  1659    1
   647    91    31    1
   648    91    75    1
   649  2863  2803    1
   650  2863  2847    1
   651   883   823    1
   652   883   867    1
   653  2467  2407    1
   654  2467  2451    1
   655  2071  2011    1
   656  2071  2055    1
   657   487   427    1
   658   487   471    1
   659  3259  3199    1
   660  3259  3243    1
   661  1667  2058   ar
   662  1271  1662   ar
   663  2855  3246   ar
   664   479   870    1
   665  2459  2850   ar
   666    83   474    1
   667  3243  3254   ar
   668    75    86   ar
   669  2451  2462   ar
   670  2847  2858   ar
   671  1263  1274   ar
   672   867   878   ar
   673  2055  2066   ar
   674  1659  1670   ar
   675   471   482   ar
   676  2812  2867    1
   677  1624  1679    1
   678  1228  1283    1
   679  2416  2471    1
   680    40    95    1
   681   436   491    1
   682   832   887    1
   683  3208  3263    1
   684  2020  2075    1
   685    76     9    1
   686    76    60   ar
   687  2848  2781    1
   688  2848  2832   ar
   689  1264  1197    1
   690  1264  1248   ar
   691  3244  3177    1
   692  3244  3228   ar
   693  2452  2385    1
   694  2452  2436   ar
   695  2056  1989    1
   696  2056  2040   ar
   697   868   801    1
   698   868   852   ar
   699  1660  1593    1
   700  1660  1644   ar
   701   472   405    1
   702   472   456   ar
   703   876   812    1
   704   876  2042   ar
   705  2856  2792    1
   706  2064  2000    1
   707  2064  3230   ar
   708  1272  1208    1
   709  1272  2438    1
   710  2460  2396    1
   711  1668  1604    1
   712  1668  2834   ar
   713  3252  3188    1
   714    84    20    1
   715    84  1250    1
   716   480   416    1
   717   480  1646   ar
   718  2827  2798    1
   719  2827  3221   ar
   720   847   818    1
   721  1243  1214    1
   722  1243  1637   ar
   723  2035  2006    1
   724  2431  2402    1
   725  2431  2825   ar
   726    55    26    1
   727    55   449   ar
   728  3223  3194    1
   729   451   422    1
   730   451   845   ar
   731  1639  1610    1
   732  1639  2033   ar
   733  1662  1646   ar
   734  1662  1594    1
   735    78    62    1
   736    78    10    1
   737   474   458    1
   738   474   406    1
   739   870   854    1
   740   870   802    1
   741  1266  1250    1
   742  1266  1198    1
   743  2454  2438    1
   744  2454  2386    1
   745  2850  2834   ar
   746  2850  2782    1
   747  3246  3230   ar
   748  3246  3178    1
   749  2058  2042   ar
   750  2058  1990    1
   751  2066  2040   ar
   752  2066  1999    1
   753  1274  1248   ar
   754  1274  1207    1
   755  2462  2436   ar
   756  2462  2395    1
   757    86    60   ar
   758    86    19    1
   759  3254  3228   ar
   760  3254  3187    1
   761   482   456   ar
   762   482   415    1
   763   878   852   ar
   764   878   811    1
   765  1670  1644   ar
   766  1670  1603    1
   767  2858  2832   ar
   768  2858  2791    1
   769   447   491    1
   770   447  1642   ar
   771   843   887    1
   772   843  2038   ar
   773    51    95    1
   774    51  1246   ar
   775  1635  1679    1
   776  1635  2830   ar
   777  2823  2867    1
   778  2427  2471    1
   779  1239  1283    1
   780  1239  2434   ar
   781  3219  3263    1
   782  2031  2075    1
   783  2031  3226   ar
   784  3228  3236    1
   785  2436  2444    1
   786    60    68    1
   787  1248  1256    1
   788  2040  2048    1
   789  1644  1652    1
   790  2832  2840    1
   791   456   464    1
   792   852   860    1
   793   458   466    2
   794  2042  2050    1
   795  2438  2446    2
   796    62    70    2
   797  2834  2842    1
   798   854   862    2
   799  1646  1654    1
   800  1250  1258    2
   801  3230  3238    1
   802  2471  2415    1
   803  2075  2019    1
   804   887   831    1
   805  1679  1623    1
   806  3263  3207    1
   807    95    39    1
   808  2867  2811    1
   809   491   435    1
   810  1283  1227    1
   811  2424  2434   ar
   812  2424  2420    1
   813  1632  1642   ar
   814  1632  1628    1
   815  2028  2038   ar
   816  2028  2024    1
   817  3216  3226   ar
   818  3216  3212    1
   819  1236  1246   ar
   820  1236  1232    1
   821   444   454    1
   822   444   440    2
   823   840   850    1
   824   840   836    2
   825    48    58    1
   826    48    44    2
   827  2820  2830   ar
   828  2820  2816    1
   829   445   449   ar
   830   445   441    1
   831  1633  1637   ar
   832  1633  1629    1
   833  3217  3221   ar
   834  3217  3213    1
   835    49    53    1
   836    49    45    2
   837  2029  2033   ar
   838  2029  2025    1
   839  2821  2825   ar
   840  2821  2817    1
   841  2425  2429    1
   842  2425  2421    2
   843   841   845   ar
   844   841   837    1
   845  1237  1241    1
   846  1237  1233    2
   847  1256  1302    1
   848  1256  1312    1
   849   464   510    1
   850   464   520    1
   851  2444  2490    1
   852  2444  2500    1
   853    68   114    1
   854    68   124    1
   855  3236  3282    1
   856  3236  3292    1
   857  2840  2886    1
   858  2840  2896    1
   859  1652  1698    1
   860  1652  1708    1
   861   860   906    1
   862   860   916    1
   863  2048  2094    1
   864  2048  2104    1
   865  2033  2076    1
   866   449   492    1
   867  1637  1680    1
   868   845   888    1
   869    53    96    1
   870  3221  3264    1
   871  1241  1284    1
   872  2429  2472    1
   873  2825  2868    1
   874  2830  2799    1
   875  2434  2403    1
   876  2038  2007    1
   877   850   819    1
   878  3226  3195    1
   879  1246  1215    1
   880    58    27    1
   881   454   423    1
   882  1642  1611    1
   883  3282  3175    1
   884  2490  2383    1
   885  2886  2779    1
   886  1302  1195    1
   887   906   799    1
   888  1698  1591    1
   889   510   403    1
   890   114     7    1
   891  2094  1987    1
   892  2050  2102    1
   893  2050  2096    1
   894   466   518    1
   895   466   512    1
   896  2446  2498    1
   897  2446  2492    1
   898   862   914    1
   899   862   908    1
   900  3238  3290    1
   901  3238  3284    1
   902  1654  1706    1
   903  1654  1700    1
   904    70   122    1
   905    70   116    1
   906  1258  1310    1
   907  1258  1304    1
   908  2842  2894    1
   909  2842  2888    1
   910  2104  1983    1
   911   916   795    1
   912   124     3    1
   913  1312  1191    1
   914   520   399    1
   915  2500  2379    1
   916  3292  3171    1
   917  1708  1587    1
   918  2896  2775    1
   919  1286  1232    1
   920  1286  1195    1
   921  2078  2024    1
   922  2078  1987    1
   923  3266  3212    1
   924  3266  3175    1
   925   494   440    1
   926   494   403    1
   927  2474  2420    1
   928  2474  2383    1
   929  2870  2816    1
   930  2870  2779    1
   931   890   836    1
   932   890   799    1
   933  1682  1628    1
   934  1682  1591    1
   935    98    44    1
   936    98     7    1
   937  2874  2817    1
   938  2874  2775    1
   939  1290  1233    1
   940  1290  1191    1
   941  3270  3213    1
   942  3270  3171    1
   943  1686  1629    1
   944  1686  1587    1
   945   894   837    1
   946   894   795    1
   947   498   441    1
   948   498   399    1
   949   102    45    1
   950   102     3    1
   951  2082  2025    1
   952  2082  1983    1
   953  2478  2421    1
   954  2478  2379    1
   955  3290  3171    1
   956   914   795    1
   957   518   399    1
   958   122     3    1
   959  1706  1587    1
   960  2102  1983    1
   961  2894  2775    1
   962  2498  2379    1
   963  1310  1191    1
   964  1700  1591    1
   965  2096  1987    1
   966  3284  3175    1
   967  2492  2383    1
   968   908   799    1
   969   512   403    1
   970  1304  1195    1
   971  2888  2779    1
   972   116     7    1
   973  2420  2480    1
   974   836   896    1
   975  3212  3272    1
   976  1628  1688    1
   977  2024  2084    1
   978    44   104    1
   979  2816  2876    1
   980  1232  1292    1
   981   440   500    1
   982  2817  2871    1
   983  2421  2475    1
   984  1233  1287    1
   985    45    99    1
   986  2025  2079    1
   987   837   891    1
   988  1629  1683    1
   989  3213  3267    1
   990   441   495    1
   991    96    41    1
   992    96    42    1
   993   888   833    1
   994   888   834    1
   995  1284  1229    1
   996  1284  1230    1
   997  3264  3209    1
   998  3264  3210    1
   999  2076  2021    1
  1000  2076  2022    1
  1001  2472  2417    1
  1002  2472  2418    1
  1003  1680  1625    1
  1004  1680  1626    1
  1005   492   437    1
  1006   492   438    1
  1007  2868  2813    1
  1008  2868  2814    1
  1009  3171  3277    1
  1010  3171  3279    1
  1011   399   505    1
  1012   399   507    1
  1013  1587  1693    1
  1014  1587  1695    1
  1015  2379  2485    1
  1016  2379  2487    1
  1017     3   109    1
  1018     3   111    1
  1019   795   901    1
  1020   795   903    1
  1021  1191  1297    1
  1022  1191  1299    1
  1023  2775  2881    1
  1024  2775  2883    1
  1025  1983  2089    1
  1026  1983  2091    1
  1027   799   922    1
  1028   799   898    1
  1029   799   900    1
  1030  2779  2902    1
  1031  2779  2878    1
  1032  2779  2880    1
  1033  2383  2506    1
  1034  2383  2482    1
  1035  2383  2484    1
  1036   403   526    1
  1037   403   502    1
  1038   403   504    1
  1039  1195  1318    1
  1040  1195  1294    1
  1041  1195  1296    1
  1042  3175  3298    1
  1043  3175  3274    1
  1044  3175  3276    1
  1045     7   130    1
  1046     7   106    1
  1047     7   108    1
  1048  1987  2110    1
  1049  1987  2086    1
  1050  1987  2088    1
  1051  1591  1714    1
  1052  1591  1690    1
  1053  1591  1692    1
  1054   500   397    1
  1055  2480  2377    1
  1056  3272  3169    1
  1057  2876  2773    1
  1058  1688  1585    1
  1059   896   793    1
  1060  2084  1981    1
  1061   104     1    1
  1062  1292  1189    1
  1063   891   798    1
  1064  2871  2778    1
  1065  2079  1986    1
  1066  1287  1194    1
  1067  2475  2382    1
  1068    99     6    1
  1069  3267  3174    1
  1070  1683  1590    1
  1071   495   402    1
  1072   431   489    1
  1073  2411  2469    1
  1074  2807  2865    1
  1075  2015  2073    1
  1076    35    93    1
  1077   827   885    1
  1078  3203  3261    1
  1079  1619  1677    1
  1080  1223  1281    1
  1081   130    23    1
  1082  1714  1607    1
  1083  1318  1211    1
  1084  2506  2399    1
  1085  2110  2003    1
  1086  3298  3191    1
  1087   526   419    1
  1088   922   815    1
  1089  2902  2795    1
  1090  3274  3169    1
  1091  1690  1585    1
  1092  2878  2773    1
  1093  1294  1189    1
  1094   106     1    1
  1095  2086  1981    1
  1096  2482  2377    1
  1097   898   793    1
  1098   502   397    1
  1099   505   402    1
  1100  1693  1590    1
  1101  2485  2382    1
  1102  2881  2778    1
  1103   109     6    1
  1104  3277  3174    1
  1105  2089  1986    1
  1106  1297  1194    1
  1107   901   798    1
  1108  1224  1281    1
  1109   432   489    1
  1110  2412  2469    1
  1111    36    93    1
  1112  1620  1677    1
  1113  3204  3261    1
  1114  2808  2865    1
  1115  2016  2073    1
  1116   828   885    1
  1117  1296  1189    1
  1118  1692  1585    1
  1119  2088  1981    1
  1120   108     1    1
  1121   900   793    1
  1122   504   397    1
  1123  2484  2377    1
  1124  3276  3169    1
  1125  2880  2773    1
  1126   885   879    1
  1127  3261  3255    1
  1128  1677  1671    1
  1129  2865  2859    1
  1130  2073  2067    1
  1131  2469  2463    1
  1132  1281  1275    1
  1133    93    87    1
  1134   489   483    1
  1135  1695  1590    1
  1136   903   798    1
  1137  2487  2382    1
  1138   111     6    1
  1139  2883  2778    1
  1140  2091  1986    1
  1141  3279  3174    1
  1142  1299  1194    1
  1143   507   402    1
  1144    14    82    1
  1145  1202  1270    1
  1146  1994  2062    1
  1147  1598  1666    1
  1148  2390  2458    1
  1149  3182  3250    1
  1150   410   478    1
  1151  2786  2854    1
  1152   806   874    1
  1153  1204  1277    1
  1154  2392  2465    1
  1155  1600  1673    1
  1156  3184  3257    1
  1157  1996  2069    1
  1158    16    89    1
  1159  2788  2861    1
  1160   808   881    1
  1161   412   485    1
  1162    12    80    1
  1163  1992  2060    1
  1164  2388  2456    1
  1165   408   476    1
  1166  3180  3248    1
  1167  2784  2852    1
  1168  1200  1268    1
  1169  1596  1664    1
  1170   804   872    1
  1171  1585  1710    1
  1172  1585  1712    1
  1173  1189  1314    1
  1174  1189  1316    1
  1175  2773  2898    1
  1176  2773  2900    1
  1177     1   126    1
  1178     1   128    1
  1179  1981  2106    1
  1180  1981  2108    1
  1181  3169  3294    1
  1182  3169  3296    1
  1183   397   522    1
  1184   397   524    1
  1185  2377  2502    1
  1186  2377  2504    1
  1187   793   918    1
  1188   793   920    1
  1189   798   911    1
  1190   798   909    1
  1191   798  1055    1
  1192  2778  2891    1
  1193  2778  2889    1
  1194  2778  3035    1
  1195   402   515    1
  1196   402   513    1
  1197   402   659    1
  1198  1986  2099    1
  1199  1986  2097    1
  1200  1986  2243    1
  1201  2382  2495    1
  1202  2382  2493    1
  1203  2382  2639    1
  1204     6   119    1
  1205     6   117    1
  1206     6   263    1
  1207  1590  1703    1
  1208  1590  1701    1
  1209  1590  1847    1
  1210  1194  1307    1
  1211  1194  1305    1
  1212  1194  1451    1
  1213  3174  3287    1
  1214  3174  3285    1
  1215  3174  3431    1
  1216   483  1666   ar
  1217   483   461   ar
  1218  2859  2837    1
  1219   879  2062   ar
  1220   879   857   ar
  1221  2067  3250   ar
  1222  2067  2045   ar
  1223  1275  2458   ar
  1224  1275  1253   ar
  1225  2463  2441    1
  1226  3255  3233    1
  1227  1671  2854   ar
  1228  1671  1649   ar
  1229    87  1270   ar
  1230    87    65   ar
  1231  1666  1650   ar
  1232  2854  2838   ar
  1233    82    66    1
  1234   478   462    1
  1235  2458  2442   ar
  1236   874   858    1
  1237  3250  3234   ar
  1238  1270  1254   ar
  1239  2062  2046   ar
  1240  1307  1261    1
  1241  2495  2449    1
  1242  2099  2053    1
  1243   911   865    1
  1244  3287  3241    1
  1245   119    73    1
  1246  1703  1657    1
  1247  2891  2845    1
  1248   515   469    1
  1249  2861  2456   ar
  1250  2861  2967   ar
  1251   485    80   ar
  1252   485   591   ar
  1253   881   476   ar
  1254   881   987   ar
  1255  2069  1664   ar
  1256  2069  2175   ar
  1257  2465  2571    1
  1258  1673  1268   ar
  1259  1673  1779   ar
  1260  3257  2852   ar
  1261  3257  3363   ar
  1262    89   195    1
  1263  1277  1383    1
  1264  2852  2968   ar
  1265    80   196   ar
  1266  1664  1780   ar
  1267  2456  2572   ar
  1268  2060  2176    1
  1269  1268  1384   ar
  1270   872   988    1
  1271  3248  3364    1
  1272   476   592   ar
  1273  1314  1262    1
  1274  2106  2054    1
  1275   918   866    1
  1276  2502  2450    1
  1277   126    74    1
  1278  3294  3242    1
  1279  2898  2846    1
  1280  1710  1658    1
  1281   522   470    1
  1282  2097  2183    1
  1283  2493  2579    1
  1284  2889  2975    1
  1285  3285  3371    1
  1286  1305  1391    1
  1287   513   599    1
  1288  1701  1787    1
  1289   117   203    1
  1290   909   995    1
  1291   128   204    1
  1292   524   600    1
  1293  2504  2580    1
  1294  3296  3372    1
  1295  2900  2976    1
  1296  1712  1788    1
  1297  2108  2184    1
  1298   920   996    1
  1299  1316  1392    1
  1300  1253  1261    1
  1301  1253  1401   ar
  1302  3233  3241    2
  1303  3233  3381    1
  1304  2837  2845    2
  1305  2837  2985    1
  1306  2441  2449    2
  1307  2441  2589    1
  1308    65    73    1
  1309    65   213   ar
  1310  1649  1657    1
  1311  1649  1797   ar
  1312  2045  2053    1
  1313  2045  2193   ar
  1314   461   469    1
  1315   461   609   ar
  1316   857   865    1
  1317   857  1005   ar
  1318  2001  2112    1
  1319  1209  1320    1
  1320  2397  2508    1
  1321  3189  3300    1
  1322   813   924    1
  1323  1605  1716    1
  1324    21   132    1
  1325   417   528    1
  1326  2793  2904    1
  1327  2053  2237    1
  1328  2449  2633    1
  1329    73   257    1
  1330  1657  1841    1
  1331   865  1049    1
  1332  2845  3029    1
  1333   469   653    1
  1334  1261  1445    1
  1335  3241  3425    1
  1336  2838  2846    1
  1337  2838  2992   ar
  1338  3234  3242    1
  1339  3234  3388   ar
  1340   858   866    2
  1341   858  1012    1
  1342    66    74    2
  1343    66   220    1
  1344   462   470    2
  1345   462   616    1
  1346  2442  2450    1
  1347  2442  2596   ar
  1348  2046  2054    1
  1349  2046  2200   ar
  1350  1254  1262    1
  1351  1254  1408   ar
  1352  1650  1658    1
  1353  1650  1804   ar
  1354  3300  3305    1
  1355  1320  1325    1
  1356  2112  2117    1
  1357   924   929    1
  1358   132   137    1
  1359  2508  2513    1
  1360   528   533    1
  1361  2904  2909    1
  1362  1716  1721    1
  1363    74   252    1
  1364  1262  1440    1
  1365  1658  1836    1
  1366   470   648    1
  1367  2054  2232    1
  1368   866  1044    1
  1369  2846  3024    1
  1370  2450  2628    1
  1371  3242  3420    1
  1372  3035  2926    1
  1373   263   154    1
  1374  3431  3322    1
  1375  1055   946    1
  1376  2639  2530    1
  1377  2243  2134    1
  1378  1451  1342    1
  1379  1847  1738    1
  1380   659   550    1
  1381  3371  3363    1
  1382  3371  3427    1
  1383  1787  1779    1
  1384  1787  1843    1
  1385  1391  1383    2
  1386  1391  1447    1
  1387  2183  2175    1
  1388  2183  2239    1
  1389  2975  2967    1
  1390  2975  3031    1
  1391   599   591    1
  1392   599   655    1
  1393  2579  2571    2
  1394  2579  2635    1
  1395   203   195    2
  1396   203   259    1
  1397   995   987    1
  1398   995  1051    1
  1399  2967  2983   ar
  1400   987  1003   ar
  1401  2175  2191   ar
  1402  1779  1795   ar
  1403  2571  2587    1
  1404   195   211    1
  1405  3363  3379   ar
  1406   591   607   ar
  1407  1383  1399    1
  1408  3372  3364    2
  1409  3372  3418    1
  1410   996   988    2
  1411   996  1042    1
  1412   600   592    1
  1413   600   646    1
  1414  2580  2572    1
  1415  2580  2626    1
  1416   204   196    1
  1417   204   250    1
  1418  2976  2968    1
  1419  2976  3022    1
  1420  2184  2176    2
  1421  2184  2230    1
  1422  1392  1384    1
  1423  1392  1438    1
  1424  1788  1780    1
  1425  1788  1834    1
  1426  1384  1806   ar
  1427  2968  3390   ar
  1428   592  1014   ar
  1429  2572  2994   ar
  1430  1780  2202   ar
  1431   196   618   ar
  1432  1841  1718    1
  1433  2633  2510    1
  1434   653   530    1
  1435  3029  2906    1
  1436  1445  1322    1
  1437   257   134    1
  1438  3425  3302    1
  1439  2237  2114    1
  1440  1049   926    1
  1441   213  1408   ar
  1442   213   147    1
  1443  1005  2200   ar
  1444  1005   939    1
  1445  3381  3315    1
  1446  1401  2596   ar
  1447  1401  1335    1
  1448  2589  2523    1
  1449  2193  3388   ar
  1450  2193  2127    1
  1451  2985  2919    1
  1452   609  1804   ar
  1453   609   543    1
  1454  1797  2992   ar
  1455  1797  1731    1
  1456  1044   929    1
  1457  2628  2513    1
  1458  3024  2909    1
  1459   252   137    1
  1460  1836  1721    1
  1461   648   533    1
  1462  1440  1325    1
  1463  2232  2117    1
  1464  3420  3305    1
  1465  1042   929    1
  1466  3022  2909    1
  1467   646   533    1
  1468  1834  1721    1
  1469  2626  2513    1
  1470  1438  1325    1
  1471  3418  3305    1
  1472  2230  2117    1
  1473   250   137    1
  1474  1447  1322    1
  1475  1051   926    1
  1476  1843  1718    1
  1477  2239  2114    1
  1478   655   530    1
  1479  2635  2510    1
  1480   259   134    1
  1481  3031  2906    1
  1482  3427  3302    1
  1483   616   545    1
  1484  1012   941    1
  1485  3388  3317    1
  1486  1804  1733    1
  1487  1408  1337    1
  1488  2992  2921    1
  1489  2596  2525    1
  1490  2200  2129    1
  1491   220   149    1
  1492  2587  2598    1
  1493  2587  2521    1
  1494  1795  1806   ar
  1495  1795  1729    1
  1496   211   222    1
  1497   211   145    1
  1498  3379  3390   ar
  1499  3379  3313    1
  1500  1003  1014   ar
  1501  1003   937    1
  1502  2983  2994   ar
  1503  2983  2917    1
  1504  2191  2202   ar
  1505  2191  2125    1
  1506  1399  1410    1
  1507  1399  1333    1
  1508   607   618   ar
  1509   607   541    1
  1510  3390  3392    1
  1511  2202  2204    1
  1512  2598  2600    2
  1513  1014  1016    1
  1514  2994  2996    1
  1515  1410  1412    2
  1516   618   620    1
  1517   222   224    2
  1518  1806  1808    1
  1519  1721  1828    1
  1520  1721  1826    1
  1521  1721  1816    1
  1522   137   244    1
  1523   137   242    1
  1524   137   232    1
  1525  1325  1432    1
  1526  1325  1430    1
  1527  1325  1420    1
  1528  2513  2620    1
  1529  2513  2618    1
  1530  2513  2608    1
  1531  2117  2224    1
  1532  2117  2222    1
  1533  2117  2212    1
  1534   929  1036    1
  1535   929  1034    1
  1536   929  1024    1
  1537   533   640    1
  1538   533   638    1
  1539   533   628    1
  1540  2909  3016    1
  1541  2909  3014    1
  1542  2909  3004    1
  1543  3305  3412    1
  1544  3305  3410    1
  1545  3305  3400    1
  1546  2510  2615    1
  1547  2510  2613    1
  1548  2510  2611    1
  1549  1322  1427    1
  1550  1322  1425    1
  1551  1322  1423    1
  1552  2114  2219    1
  1553  2114  2217    1
  1554  2114  2215    1
  1555  1718  1823    1
  1556  1718  1821    1
  1557  1718  1819    1
  1558   926  1031    1
  1559   926  1029    1
  1560   926  1027    1
  1561   530   635    1
  1562   530   633    1
  1563   530   631    1
  1564  3302  3407    1
  1565  3302  3405    1
  1566  3302  3403    1
  1567  2906  3011    1
  1568  2906  3009    1
  1569  2906  3007    1
  1570   134   239    1
  1571   134   237    1
  1572   134   235    1
  1573  2928  3033    1
  1574   156   261    1
  1575   552   657    1
  1576   948  1053    1
  1577  3324  3429    1
  1578  1344  1449    1
  1579  2136  2241    1
  1580  2532  2637    1
  1581  1740  1845    1
  1582  2600  2542    1
  1583  1412  1354    1
  1584  2996  2541    1
  1585  2996  2938    1
  1586  2204  1749    1
  1587  2204  2146    1
  1588  1016   561    1
  1589  1016   958    1
  1590  1808  1353    1
  1591  1808  1750    1
  1592   620   165    1
  1593   620   562    1
  1594  3392  2937    1
  1595  3392  3334    1
  1596   224   166    1
  1597  1036   928    1
  1598  2224  2116    1
  1599  2620  2512    1
  1600   244   136    1
  1601  1432  1324    1
  1602  3016  2908    1
  1603   640   532    1
  1604  3412  3304    1
  1605  1828  1720    1
  1606  3407  3308    1
  1607  2615  2516    1
  1608  1031   932    1
  1609  1427  1328    1
  1610  1823  1724    1
  1611  2219  2120    1
  1612   239   140    1
  1613  3011  2912    1
  1614   635   536    1
  1615  1425  1328    1
  1616  1821  1724    1
  1617   633   536    1
  1618  3009  2912    1
  1619  2217  2120    1
  1620  3405  3308    1
  1621  2613  2516    1
  1622   237   140    1
  1623  1029   932    1
  1624  3014  2908    1
  1625  1430  1324    1
  1626  2618  2512    1
  1627  1034   928    1
  1628   242   136    1
  1629   638   532    1
  1630  3410  3304    1
  1631  1826  1720    1
  1632  2222  2116    1
  1633  1053   932    1
  1634  3429  3308    1
  1635  2241  2120    1
  1636  3033  2912    1
  1637   657   536    1
  1638  1845  1724    1
  1639   261   140    1
  1640  1449  1328    1
  1641  2637  2516    1
  1642   232   178    1
  1643  1816  1762    1
  1644  1420  1366    1
  1645  3400  3346    1
  1646  1024   970    1
  1647   628   574    1
  1648  2608  2554    1
  1649  2212  2158    1
  1650  3004  2950    1
  1651  2215  2155    1
  1652   235   175    1
  1653  1027   967    1
  1654  1819  1759    1
  1655  1423  1363    1
  1656   631   571    1
  1657  3403  3343    1
  1658  3007  2947    1
  1659  2611  2551    1
  1660  2120  2227    1
  1661  2120  2209    1
  1662  2120  2225    1
  1663   932  1039    1
  1664   932  1021    1
  1665   932  1037    1
  1666  2912  3019    1
  1667  2912  3001    1
  1668  2912  3017    1
  1669  3308  3415    1
  1670  3308  3397    1
  1671  3308  3413    1
  1672  1724  1831    1
  1673  1724  1813    1
  1674  1724  1829    1
  1675  1328  1435    1
  1676  1328  1417    1
  1677  1328  1433    1
  1678   140   247    1
  1679   140   229    1
  1680   140   245    1
  1681  2516  2623    1
  1682  2516  2605    1
  1683  2516  2621    1
  1684   536   643    1
  1685   536   625    1
  1686   536   641    1
  1687  3304  3421    1
  1688  3304  3401    1
  1689  3304  3423    1
  1690   532   649    1
  1691   532   629    1
  1692   532   651    1
  1693   928  1045    1
  1694   928  1025    1
  1695   928  1047    1
  1696  2908  3025    1
  1697  2908  3005    1
  1698  2908  3027    1
  1699  2512  2629    1
  1700  2512  2609    1
  1701  2512  2631    1
  1702  2116  2233    1
  1703  2116  2213    1
  1704  2116  2235    1
  1705  1324  1441    1
  1706  1324  1421    1
  1707  1324  1443    1
  1708  1720  1837    1
  1709  1720  1817    1
  1710  1720  1839    1
  1711   136   253    1
  1712   136   233    1
  1713   136   255    1
  1714  3330  3354    1
  1715  2142  2166    1
  1716   558   582    1
  1717   954   978    1
  1718  2934  2958    1
  1719   162   186    1
  1720  2538  2562    1
  1721  1350  1374    1
  1722  1746  1770    1
  1723   160   189    1
  1724  1348  1377    1
  1725  2536  2565    1
  1726  2140  2169    1
  1727  2932  2961    1
  1728  3328  3357    1
  1729  1744  1773    1
  1730   556   585    1
  1731   952   981    1
  1732  2950  3005    1
  1733  2950  2954    1
  1734  2158  2213    1
  1735  2158  2162    2
  1736   574   629    1
  1737   574   578    1
  1738  3346  3401    1
  1739  3346  3350    2
  1740   178   233    1
  1741   178   182    1
  1742  1366  1421    1
  1743  1366  1370    1
  1744  2554  2609    1
  1745  2554  2558    1
  1746   970  1025    1
  1747   970   974    2
  1748  1762  1817    1
  1749  1762  1766    1
  1750  2155  2209    1
  1751  2155  2159    1
  1752   571   625    1
  1753   571   575    1
  1754  1363  1417    1
  1755  1363  1367    1
  1756  2551  2605    1
  1757  2551  2555    2
  1758   967  1021    1
  1759   967   971    1
  1760  1759  1813    1
  1761  1759  1763    1
  1762  2947  3001    1
  1763  2947  2951    2
  1764   175   229    1
  1765   175   179    1
  1766  3343  3397    1
  1767  3343  3347    2
  1768  1045   993    1
  1769  1441  1389    1
  1770  2233  2181    1
  1771   649   597    1
  1772  2629  2577    1
  1773  1837  1785    1
  1774   253   201    1
  1775  3025  2973    1
  1776  3421  3369    1
  1777  2227  2181    1
  1778  3019  2973    1
  1779  3415  3369    1
  1780   247   201    1
  1781  2623  2577    1
  1782  1831  1785    1
  1783  1039   993    1
  1784   643   597    1
  1785  1435  1389    1
  1786   651   595    1
  1787  1443  1387    1
  1788  1839  1783    1
  1789  3423  3367    1
  1790  2631  2575    1
  1791  1047   991    1
  1792  3027  2971    1
  1793  2235  2179    1
  1794   255   199    1
  1795   641   595    1
  1796  3017  2971    1
  1797  3413  3367    1
  1798  1829  1783    1
  1799  2225  2179    1
  1800  1433  1387    1
  1801  1037   991    1
  1802  2621  2575    1
  1803   245   199    1
  1804  1785  1777    1
  1805  3369  3361    2
  1806  1389  1381    1
  1807  2181  2173    2
  1808  2973  2965    2
  1809   993   985    2
  1810   201   193    1
  1811  2577  2569    2
  1812   597   589    1
  1813  3354  3350    1
  1814   186   182   ar
  1815   186   584   ar
  1816  2562  2558   ar
  1817  2562  2960   ar
  1818   582   578   ar
  1819   582   980   ar
  1820  2958  2954   ar
  1821  2958  3356   ar
  1822   978   974    1
  1823  2166  2162    1
  1824  1770  1766   ar
  1825  1770  2168   ar
  1826  1374  1370   ar
  1827  1374  1772   ar
  1828  2565  2555    1
  1829  1773  1763   ar
  1830  1773  2956   ar
  1831   981   971   ar
  1832   981  2164   ar
  1833  3357  3347    1
  1834  1377  1367   ar
  1835  1377  2560   ar
  1836   189   179   ar
  1837   189  1372   ar
  1838  2169  2159   ar
  1839  2169  3352   ar
  1840  2961  2951    1
  1841   585   575   ar
  1842   585  1768   ar
  1843  1783  1775    1
  1844  3367  3359    1
  1845  2179  2171    1
  1846  2971  2963    1
  1847  2575  2567    1
  1848   991   983    1
  1849   199   191    1
  1850   595   587    1
  1851  1387  1379    1
  1852   170  1414    1
  1853  2150  3394    1
  1854   566  1810    1
  1855  1754  2998    1
  1856  1358  2602    1
  1857   962  2206    1
  1858  1370  1375   ar
  1859  2162  2167    1
  1860   974   979    1
  1861  1766  1771   ar
  1862  2558  2563   ar
  1863   578   583   ar
  1864  3350  3355    1
  1865  2954  2959   ar
  1866   182   187   ar
  1867  2951  2955    1
  1868  1763  1767   ar
  1869   971   975   ar
  1870  2159  2163   ar
  1871   575   579   ar
  1872  1367  1371   ar
  1873  3347  3351    1
  1874   179   183   ar
  1875  2555  2559    1
  1876  3332  3391    1
  1877   560   619    1
  1878  2540  2599    1
  1879   956  1015    1
  1880  2144  2203    1
  1881  2936  2995    1
  1882   164   223    1
  1883  1352  1411    1
  1884  1748  1807    1
  1885  2519  2585    1
  1886  3311  3377    1
  1887  1331  1397    1
  1888  1727  1793    1
  1889   539   605    1
  1890   935  1001    1
  1891   143   209    1
  1892  2123  2189    1
  1893  2915  2981    1
  1894  2569  2585    1
  1895  1777  1793   ar
  1896  1777  2987   ar
  1897   193   209   ar
  1898   193  1403   ar
  1899  2173  2189    1
  1900  2173  3383    1
  1901  2965  2981    1
  1902  1381  1397   ar
  1903  1381  2591   ar
  1904   589   605   ar
  1905   589  1799   ar
  1906   985  1001    1
  1907   985  2195    1
  1908  3361  3377    1
  1909  2922  2989    1
  1910  2130  2197    1
  1911   546   613    1
  1912  1734  1801    1
  1913  1338  1405    1
  1914   150   217    1
  1915  2526  2593    1
  1916  3318  3385    1
  1917   942  1009    1
  1918  1745  1768    1
  1919  2537  2560    1
  1920  2933  2956    1
  1921  3329  3352    1
  1922   557   580    1
  1923   161   184    1
  1924   953   976    1
  1925  1349  1372    1
  1926  2141  2164    1
  1927  2963  2989   ar
  1928  2963  2979   ar
  1929   587   613   ar
  1930   587   603   ar
  1931  2567  2593   ar
  1932  2567  2583   ar
  1933   191   217   ar
  1934   191   207   ar
  1935   983  1009   ar
  1936   983   999   ar
  1937  1775  1801   ar
  1938  1775  1791   ar
  1939  2171  2197   ar
  1940  2171  2187   ar
  1941  3359  3385   ar
  1942  3359  3375   ar
  1943  1379  1405   ar
  1944  1379  1395   ar
  1945  2929  2960    1
  1946  3325  3356    1
  1947  2137  2168    1
  1948  2533  2564    1
  1949   157   188    1
  1950  1345  1376    1
  1951  1741  1772    1
  1952   553   584    1
  1953   949   980    1
  1954   226   169    1
  1955   226   215    2
  1956  2206  2149    1
  1957  2206  2195    1
  1958  1414  1357    1
  1959  1414  1403    1
  1960  1810  1753    1
  1961  1810  1799    1
  1962  2602  2545    1
  1963  2602  2591    1
  1964  2998  2941    1
  1965  2998  2987    1
  1966  1018   961    1
  1967  1018  1007    1
  1968   622   565    1
  1969   622   611    2
  1970  3394  3337    1
  1971  3394  3383    1
  1972   605  1008   ar
  1973  2585  2988    2
  1974   209   612   ar
  1975  1397  1800   ar
  1976  2981  3384    2
  1977  1793  2196   ar
  1978  1372  1368   ar
  1979  1768  1764   ar
  1980   976   972    1
  1981  3352  3348   ar
  1982   580   576    1
  1983  2560  2556   ar
  1984  2956  2952   ar
  1985  2164  2160   ar
  1986   184   180    1
  1987  2593  2584   ar
  1988  1801  1792   ar
  1989  3385  3376   ar
  1990  1009  1000   ar
  1991   613   604   ar
  1992  2989  2980   ar
  1993  1405  1396   ar
  1994   217   208   ar
  1995  2197  2188   ar
  1996  2564  2557    1
  1997   980   973   ar
  1998  2960  2953   ar
  1999  1376  1369    1
  2000   584   577   ar
  2001  3356  3349   ar
  2002   188   181    1
  2003  2168  2161   ar
  2004  1772  1765   ar
  2005  1015   955    1
  2006  1015   999    1
  2007  1411  1351    1
  2008  1411  1395    1
  2009  2203  2143    1
  2010  2203  2187    1
  2011  3391  3331    1
  2012  3391  3375    1
  2013  2599  2539    1
  2014  2599  2583    1
  2015  2995  2935    1
  2016  2995  2979    1
  2017  1807  1747    1
  2018  1807  1791    1
  2019   619   559    1
  2020   619   603    1
  2021   223   163    1
  2022   223   207    1
  2023  1799  2190   ar
  2024  2591  2982   ar
  2025  2987  3378   ar
  2026  1403  1794   ar
  2027   215   606    1
  2028   611  1002    1
  2029  2583  2594   ar
  2030  1395  1406   ar
  2031  1791  1802   ar
  2032  2187  2198   ar
  2033   207   218   ar
  2034  3375  3386   ar
  2035   999  1010   ar
  2036  2979  2990   ar
  2037   603   614   ar
  2038  2944  2999    1
  2039  2548  2603    1
  2040  1360  1415    1
  2041   964  1019    1
  2042   172   227    1
  2043   568   623    1
  2044  1756  1811    1
  2045  2152  2207    1
  2046  3340  3395    1
  2047  1000   933    1
  2048  1000   984   ar
  2049  2980  2913    1
  2050  2980  2964   ar
  2051  3376  3309    1
  2052  3376  3360   ar
  2053   208   141    1
  2054   208   192   ar
  2055   604   537    1
  2056   604   588   ar
  2057  1792  1725    1
  2058  1792  1776   ar
  2059  2584  2517    1
  2060  2584  2568   ar
  2061  1396  1329    1
  2062  1396  1380   ar
  2063  2188  2121    1
  2064  2188  2172   ar
  2065  3384  3320    1
  2066  1008   944    1
  2067  1008  2174   ar
  2068  2988  2924    1
  2069   612   548    1
  2070   612  1778   ar
  2071  1404  1340    1
  2072  1404  2570    1
  2073   216   152    1
  2074   216  1382    1
  2075  2196  2132    1
  2076  2196  3362   ar
  2077  2592  2528    1
  2078  1800  1736    1
  2079  1800  2966   ar
  2080   979   950    1
  2081   187   158    1
  2082   187   581   ar
  2083  1375  1346    1
  2084  1375  1769   ar
  2085  1771  1742    1
  2086  1771  2165   ar
  2087  3355  3326    1
  2088  2959  2930    1
  2089  2959  3353   ar
  2090  2167  2138    1
  2091   583   554    1
  2092   583   977   ar
  2093  2563  2534    1
  2094  2563  2957   ar
  2095  2190  2174   ar
  2096  2190  2122    1
  2097  1794  1778   ar
  2098  1794  1726    1
  2099  1002   986    1
  2100  1002   934    1
  2101  3378  3362   ar
  2102  3378  3310    1
  2103  2586  2570    1
  2104  2586  2518    1
  2105  1398  1382    1
  2106  1398  1330    1
  2107  2982  2966   ar
  2108  2982  2914    1
  2109   210   194    1
  2110   210   142    1
  2111   606   590    1
  2112   606   538    1
  2113   218   192   ar
  2114   218   151    1
  2115  2198  2172   ar
  2116  2198  2131    1
  2117  2594  2568   ar
  2118  2594  2527    1
  2119  2990  2964   ar
  2120  2990  2923    1
  2121  1010   984   ar
  2122  1010   943    1
  2123   614   588   ar
  2124   614   547    1
  2125  3386  3360   ar
  2126  3386  3319    1
  2127  1802  1776   ar
  2128  1802  1735    1
  2129  1406  1380   ar
  2130  1406  1339    1
  2131  2163  2207    1
  2132  2163  3358   ar
  2133  1767  1811    1
  2134  1767  2962   ar
  2135  3351  3395    1
  2136   183   227    1
  2137   183  1378   ar
  2138   975  1019    1
  2139   975  2170   ar
  2140  2559  2603    1
  2141   579   623    1
  2142   579  1774   ar
  2143  1371  1415    1
  2144  1371  2566   ar
  2145  2955  2999    1
  2146   588   596    1
  2147  1776  1784    1
  2148  3360  3368    1
  2149  2964  2972    1
  2150  1380  1388    1
  2151  2172  2180    1
  2152   192   200    1
  2153  2568  2576    1
  2154   984   992    1
  2155  1382  1390    2
  2156   194   202    2
  2157   986   994    2
  2158  2966  2974    1
  2159  3362  3370    1
  2160  1778  1786    1
  2161  2570  2578    2
  2162   590   598    2
  2163  2174  2182    1
  2164  1415  1359    1
  2165  1019   963    1
  2166  2207  2151    1
  2167  3395  3339    1
  2168  1811  1755    1
  2169   623   567    1
  2170  2603  2547    1
  2171  2999  2943    1
  2172   227   171    1
  2173   180   190    1
  2174   180   176    2
  2175  2556  2566   ar
  2176  2556  2552    1
  2177  3348  3358   ar
  2178  3348  3344    1
  2179  2160  2170   ar
  2180  2160  2156    1
  2181   576   586    1
  2182   576   572    2
  2183  2952  2962   ar
  2184  2952  2948    1
  2185  1368  1378   ar
  2186  1368  1364    1
  2187  1764  1774   ar
  2188  1764  1760    1
  2189   972   982    1
  2190   972   968    2
  2191  2953  2957   ar
  2192  2953  2949    1
  2193   181   185    1
  2194   181   177    2
  2195  2161  2165   ar
  2196  2161  2157    1
  2197   973   977   ar
  2198   973   969    1
  2199  1765  1769   ar
  2200  1765  1761    1
  2201  3349  3353   ar
  2202  3349  3345    1
  2203  1369  1373    1
  2204  1369  1365    2
  2205   577   581   ar
  2206   577   573    1
  2207  2557  2561    1
  2208  2557  2553    2
  2209  1784  1830    1
  2210  1784  1840    1
  2211  2576  2622    1
  2212  2576  2632    1
  2213   992  1038    1
  2214   992  1048    1
  2215  1388  1434    1
  2216  1388  1444    1
  2217  2180  2226    1
  2218  2180  2236    1
  2219  2972  3018    1
  2220  2972  3028    1
  2221   200   246    1
  2222   200   256    1
  2223   596   642    1
  2224   596   652    1
  2225  3368  3414    1
  2226  3368  3424    1
  2227  1373  1416    1
  2228   581   624    1
  2229  2165  2208    1
  2230  2561  2604    1
  2231  3353  3396    1
  2232   185   228    1
  2233  2957  3000    1
  2234   977  1020    1
  2235  1769  1812    1
  2236  2566  2535    1
  2237  3358  3327    1
  2238  2170  2139    1
  2239   190   159    1
  2240   586   555    1
  2241   982   951    1
  2242  2962  2931    1
  2243  1774  1743    1
  2244  1378  1347    1
  2245  2226  2119    1
  2246  1830  1723    1
  2247  1038   931    1
  2248  3018  2911    1
  2249   246   139    1
  2250  1434  1327    1
  2251  3414  3307    1
  2252  2622  2515    1
  2253   642   535    1
  2254  3370  3422    1
  2255  3370  3416    1
  2256  1390  1442    1
  2257  1390  1436    1
  2258  2182  2234    1
  2259  2182  2228    1
  2260  2974  3026    1
  2261  2974  3020    1
  2262  1786  1838    1
  2263  1786  1832    1
  2264  2578  2630    1
  2265  2578  2624    1
  2266   202   254    1
  2267   202   248    1
  2268   994  1046    1
  2269   994  1040    1
  2270   598   650    1
  2271   598   644    1
  2272  2632  2511    1
  2273   652   531    1
  2274  1840  1719    1
  2275  1444  1323    1
  2276  2236  2115    1
  2277   256   135    1
  2278  1048   927    1
  2279  3424  3303    1
  2280  3028  2907    1
  2281  1022   968    1
  2282  1022   931    1
  2283  2606  2552    1
  2284  2606  2515    1
  2285  1418  1364    1
  2286  1418  1327    1
  2287  3002  2948    1
  2288  3002  2911    1
  2289  1814  1760    1
  2290  1814  1723    1
  2291   626   572    1
  2292   626   535    1
  2293  2210  2156    1
  2294  2210  2119    1
  2295   230   176    1
  2296   230   139    1
  2297  3398  3344    1
  2298  3398  3307    1
  2299   630   573    1
  2300   630   531    1
  2301  2214  2157    1
  2302  2214  2115    1
  2303  1422  1365    1
  2304  1422  1323    1
  2305  1818  1761    1
  2306  1818  1719    1
  2307  3402  3345    1
  2308  3402  3303    1
  2309  1026   969    1
  2310  1026   927    1
  2311  2610  2553    1
  2312  2610  2511    1
  2313  3006  2949    1
  2314  3006  2907    1
  2315   234   177    1
  2316   234   135    1
  2317  1838  1719    1
  2318  3026  2907    1
  2319  3422  3303    1
  2320  2630  2511    1
  2321  1046   927    1
  2322  1442  1323    1
  2323  2234  2115    1
  2324   650   531    1
  2325   254   135    1
  2326  3020  2911    1
  2327  1436  1327    1
  2328  1040   931    1
  2329   248   139    1
  2330  2228  2119    1
  2331  1832  1723    1
  2332   644   535    1
  2333  2624  2515    1
  2334  3416  3307    1
  2335   968  1028    1
  2336  1364  1424    1
  2337   176   236    1
  2338  2948  3008    1
  2339  2552  2612    1
  2340  2156  2216    1
  2341  1760  1820    1
  2342  3344  3404    1
  2343   572   632    1
  2344  1761  1815    1
  2345  3345  3399    1
  2346   177   231    1
  2347  2553  2607    1
  2348  1365  1419    1
  2349  2949  3003    1
  2350   573   627    1
  2351   969  1023    1
  2352  2157  2211    1
  2353  1020   965    1
  2354  1020   966    1
  2355   228   173    1
  2356   228   174    1
  2357  3396  3341    1
  2358  3396  3342    1
  2359   624   569    1
  2360   624   570    1
  2361  3000  2945    1
  2362  3000  2946    1
  2363  1416  1361    1
  2364  1416  1362    1
  2365  2208  2153    1
  2366  2208  2154    1
  2367  1812  1757    1
  2368  1812  1758    1
  2369  2604  2549    1
  2370  2604  2550    1
  2371   927  1033    1
  2372   927  1035    1
  2373  1719  1825    1
  2374  1719  1827    1
  2375   135   241    1
  2376   135   243    1
  2377  3303  3409    1
  2378  3303  3411    1
  2379  2115  2221    1
  2380  2115  2223    1
  2381  2511  2617    1
  2382  2511  2619    1
  2383   531   637    1
  2384   531   639    1
  2385  2907  3013    1
  2386  2907  3015    1
  2387  1323  1429    1
  2388  1323  1431    1
  2389  2515  2638    1
  2390  2515  2614    1
  2391  2515  2616    1
  2392  2119  2242    1
  2393  2119  2218    1
  2394  2119  2220    1
  2395   535   658    1
  2396   535   634    1
  2397   535   636    1
  2398  1327  1450    1
  2399  1327  1426    1
  2400  1327  1428    1
  2401  3307  3430    1
  2402  3307  3406    1
  2403  3307  3408    1
  2404   931  1054    1
  2405   931  1030    1
  2406   931  1032    1
  2407  2911  3034    1
  2408  2911  3010    1
  2409  2911  3012    1
  2410  1723  1846    1
  2411  1723  1822    1
  2412  1723  1824    1
  2413   139   262    1
  2414   139   238    1
  2415   139   240    1
  2416  3008  2905    1
  2417  3404  3301    1
  2418  1820  1717    1
  2419   632   529    1
  2420  2612  2509    1
  2421  1028   925    1
  2422  2216  2113    1
  2423  1424  1321    1
  2424   236   133    1
  2425   627   534    1
  2426  1419  1326    1
  2427  3003  2910    1
  2428  1023   930    1
  2429   231   138    1
  2430  2211  2118    1
  2431  3399  3306    1
  2432  2607  2514    1
  2433  1815  1722    1
  2434  3335  3393    1
  2435  1751  1809    1
  2436   959  1017    1
  2437  2543  2601    1
  2438   167   225    1
  2439  2939  2997    1
  2440  1355  1413    1
  2441  2147  2205    1
  2442   563   621    1
  2443  2638  2531    1
  2444  1054   947    1
  2445  2242  2135    1
  2446   658   551    1
  2447  3430  3323    1
  2448  1450  1343    1
  2449  1846  1739    1
  2450   262   155    1
  2451  3034  2927    1
  2452  2614  2509    1
  2453  3406  3301    1
  2454  2218  2113    1
  2455  1426  1321    1
  2456  1822  1717    1
  2457   238   133    1
  2458  3010  2905    1
  2459  1030   925    1
  2460   634   529    1
  2461   637   534    1
  2462  1825  1722    1
  2463  3013  2910    1
  2464  2617  2514    1
  2465  1033   930    1
  2466  1429  1326    1
  2467   241   138    1
  2468  2221  2118    1
  2469  3409  3306    1
  2470   960  1017    1
  2471  1356  1413    1
  2472   564   621    1
  2473  1752  1809    1
  2474  2544  2601    1
  2475  2148  2205    1
  2476  3336  3393    1
  2477   168   225    1
  2478  2940  2997    1
  2479  3012  2905    1
  2480  1824  1717    1
  2481  2616  2509    1
  2482  3408  3301    1
  2483  1428  1321    1
  2484  1032   925    1
  2485   240   133    1
  2486  2220  2113    1
  2487   636   529    1
  2488  2205  2199    1
  2489   225   219    1
  2490  1413  1407    1
  2491   621   615    1
  2492  2997  2991    1
  2493  1017  1011    1
  2494  3393  3387    1
  2495  1809  1803    1
  2496  2601  2595    1
  2497   243   138    1
  2498  1827  1722    1
  2499   639   534    1
  2500  1035   930    1
  2501  3015  2910    1
  2502  2619  2514    1
  2503  1431  1326    1
  2504  2223  2118    1
  2505  3411  3306    1
  2506   146   214    1
  2507   938  1006    1
  2508   542   610    1
  2509  2126  2194    1
  2510  1334  1402    1
  2511  2918  2986    1
  2512  3314  3382    1
  2513  1730  1798    1
  2514  2522  2590    1
  2515   148   221    1
  2516   544   617    1
  2517  2128  2201    1
  2518  3316  3389    1
  2519  1732  1805    1
  2520  1336  1409    1
  2521   940  1013    1
  2522  2920  2993    1
  2523  2524  2597    1
  2524  2124  2192    1
  2525  2520  2588    1
  2526  3312  3380    1
  2527  1728  1796    1
  2528  2916  2984    1
  2529   144   212    1
  2530  1332  1400    1
  2531   936  1004    1
  2532   540   608    1
  2533  2905  3030    1
  2534  2905  3032    1
  2535   133   258    1
  2536   133   260    1
  2537   925  1050    1
  2538   925  1052    1
  2539  2509  2634    1
  2540  2509  2636    1
  2541  2113  2238    1
  2542  2113  2240    1
  2543  1321  1446    1
  2544  1321  1448    1
  2545  1717  1842    1
  2546  1717  1844    1
  2547   529   654    1
  2548   529   656    1
  2549  3301  3426    1
  2550  3301  3428    1
  2551  2514  2627    1
  2552  2514  2625    1
  2553  2514  2771    1
  2554   930  1043    1
  2555   930  1041    1
  2556   930  1187    1
  2557  2910  3023    1
  2558  2910  3021    1
  2559  2910  3167    1
  2560  1326  1439    1
  2561  1326  1437    1
  2562  1326  1583    1
  2563   138   251    1
  2564   138   249    1
  2565   138   395    1
  2566   534   647    1
  2567   534   645    1
  2568   534   791    1
  2569  2118  2231    1
  2570  2118  2229    1
  2571  2118  2375    1
  2572  3306  3419    1
  2573  3306  3417    1
  2574  3306  3563    1
  2575  1722  1835    1
  2576  1722  1833    1
  2577  1722  1979    1
  2578  3387  3365    1
  2579  1803  2986   ar
  2580  1803  1781   ar
  2581  1407  2590   ar
  2582  1407  1385   ar
  2583   615  1798   ar
  2584   615   593   ar
  2585  2991  2969    1
  2586  2199  3382   ar
  2587  2199  2177   ar
  2588  1011  2194   ar
  2589  1011   989   ar
  2590   219  1402   ar
  2591   219   197   ar
  2592  2595  2573    1
  2593  2194  2178   ar
  2594  1798  1782   ar
  2595   610   594    1
  2596  2590  2574   ar
  2597  1006   990    1
  2598  1402  1386   ar
  2599  3382  3366   ar
  2600   214   198    1
  2601  2986  2970   ar
  2602  1043   997    1
  2603  2627  2581    1
  2604  2231  2185    1
  2605   647   601    1
  2606  1835  1789    1
  2607  3023  2977    1
  2608  3419  3373    1
  2609  1439  1393    1
  2610   251   205    1
  2611   617   212   ar
  2612   617   723   ar
  2613   221   327    1
  2614  1409  1515    1
  2615  2993  2588   ar
  2616  2993  3099   ar
  2617  1013   608   ar
  2618  1013  1119   ar
  2619  2597  2703    1
  2620  2201  1796   ar
  2621  2201  2307   ar
  2622  3389  2984   ar
  2623  3389  3495   ar
  2624  1805  1400   ar
  2625  1805  1911   ar
  2626   212   328   ar
  2627  2588  2704   ar
  2628  2192  2308    1
  2629  1004  1120    1
  2630  2984  3100   ar
  2631  3380  3496    1
  2632  1400  1516   ar
  2633   608   724   ar
  2634  1796  1912   ar
  2635  1050   998    1
  2636  1446  1394    1
  2637  1842  1790    1
  2638   258   206    1
  2639  3426  3374    1
  2640   654   602    1
  2641  3030  2978    1
  2642  2238  2186    1
  2643  2634  2582    1
  2644  2229  2315    1
  2645   645   731    1
  2646  2625  2711    1
  2647  1437  1523    1
  2648  3417  3503    1
  2649  1833  1919    1
  2650   249   335    1
  2651  3021  3107    1
  2652  1041  1127    1
  2653  3428  3504    1
  2654   260   336    1
  2655  1448  1524    1
  2656  3032  3108    1
  2657  2240  2316    1
  2658   656   732    1
  2659  2636  2712    1
  2660  1844  1920    1
  2661  1052  1128    1
  2662  1385  1393    1
  2663  1385  1533   ar
  2664  3365  3373    2
  2665  3365  3513    1
  2666   593   601    1
  2667   593   741   ar
  2668  2573  2581    2
  2669  2573  2721    1
  2670  2177  2185    1
  2671  2177  2325   ar
  2672   989   997    1
  2673   989  1137   ar
  2674  1781  1789    1
  2675  1781  1929   ar
  2676  2969  2977    2
  2677  2969  3117    1
  2678   197   205    1
  2679   197   345   ar
  2680  3321  3432    1
  2681  2133  2244    1
  2682  1737  1848    1
  2683   153   264    1
  2684   549   660    1
  2685  2529  2640    1
  2686  1341  1452    1
  2687  2925  3036    1
  2688   945  1056    1
  2689   997  1181    1
  2690  2185  2369    1
  2691  2581  2765    1
  2692  3373  3557    1
  2693   601   785    1
  2694  1789  1973    1
  2695  1393  1577    1
  2696   205   389    1
  2697  2977  3161    1
  2698   990   998    2
  2699   990  1144    1
  2700  3366  3374    1
  2701  3366  3520   ar
  2702  1782  1790    1
  2703  1782  1936   ar
  2704   594   602    2
  2705   594   748    1
  2706  2178  2186    1
  2707  2178  2332   ar
  2708  1386  1394    1
  2709  1386  1540   ar
  2710  2574  2582    1
  2711  2574  2728   ar
  2712   198   206    2
  2713   198   352    1
  2714  2970  2978    1
  2715  2970  3124   ar
  2716  1056  1061    1
  2717  1452  1457    1
  2718  2244  2249    1
  2719  1848  1853    1
  2720  2640  2645    1
  2721   660   665    1
  2722   264   269    1
  2723  3432  3437    1
  2724  3036  3041    1
  2725  1394  1572    1
  2726  1790  1968    1
  2727   206   384    1
  2728  3374  3552    1
  2729  2978  3156    1
  2730   602   780    1
  2731  2186  2364    1
  2732  2582  2760    1
  2733   998  1176    1
  2734  1583  1474    1
  2735  3563  3454    1
  2736  3167  3058    1
  2737   395   286    1
  2738  2771  2662    1
  2739   791   682    1
  2740  1979  1870    1
  2741  1187  1078    1
  2742  2375  2266    1
  2743   335   327    2
  2744   335   391    1
  2745  2315  2307    1
  2746  2315  2371    1
  2747  1919  1911    1
  2748  1919  1975    1
  2749  3107  3099    1
  2750  3107  3163    1
  2751  2711  2703    2
  2752  2711  2767    1
  2753   731   723    1
  2754   731   787    1
  2755  1523  1515    2
  2756  1523  1579    1
  2757  1127  1119    1
  2758  1127  1183    1
  2759  3503  3495    1
  2760  3503  3559    1
  2761   723   739   ar
  2762  2703  2719    1
  2763  1911  1927   ar
  2764   327   343    1
  2765  3099  3115   ar
  2766  3495  3511   ar
  2767  1119  1135   ar
  2768  1515  1531    1
  2769  2307  2323   ar
  2770  1128  1120    2
  2771  1128  1174    1
  2772  3108  3100    1
  2773  3108  3154    1
  2774   732   724    1
  2775   732   778    1
  2776  1920  1912    1
  2777  1920  1966    1
  2778  1524  1516    1
  2779  1524  1570    1
  2780  3504  3496    2
  2781  3504  3550    1
  2782  2712  2704    1
  2783  2712  2758    1
  2784   336   328    1
  2785   336   382    1
  2786  2316  2308    2
  2787  2316  2362    1
  2788  3100  3522   ar
  2789  2704  3126   ar
  2790  1516  1938   ar
  2791  1912  2334   ar
  2792   328   750   ar
  2793   724  1146   ar
  2794   785   662    1
  2795   389   266    1
  2796  1181  1058    1
  2797  1973  1850    1
  2798  2765  2642    1
  2799  1577  1454    1
  2800  3557  3434    1
  2801  2369  2246    1
  2802  3161  3038    1
  2803  1137  2332   ar
  2804  1137  1071    1
  2805   345  1540   ar
  2806   345   279    1
  2807  2721  2655    1
  2808  1929  3124   ar
  2809  1929  1863    1
  2810  1533  2728   ar
  2811  1533  1467    1
  2812  2325  3520   ar
  2813  2325  2259    1
  2814  3513  3447    1
  2815   741  1936   ar
  2816   741   675    1
  2817  3117  3051    1
  2818  2364  2249    1
  2819  1176  1061    1
  2820  1968  1853    1
  2821  1572  1457    1
  2822   780   665    1
  2823  2760  2645    1
  2824   384   269    1
  2825  3552  3437    1
  2826  3156  3041    1
  2827   778   665    1
  2828  2362  2249    1
  2829  3550  3437    1
  2830  3154  3041    1
  2831  1966  1853    1
  2832   382   269    1
  2833  1570  1457    1
  2834  1174  1061    1
  2835  2758  2645    1
  2836  1579  1454    1
  2837  1975  1850    1
  2838  3163  3038    1
  2839  2767  2642    1
  2840   787   662    1
  2841  1183  1058    1
  2842  2371  2246    1
  2843  3559  3434    1
  2844   391   266    1
  2845  1540  1469    1
  2846  3124  3053    1
  2847  2332  2261    1
  2848  1144  1073    1
  2849  2728  2657    1
  2850  3520  3449    1
  2851   748   677    1
  2852   352   281    1
  2853  1936  1865    1
  2854  3115  3126   ar
  2855  3115  3049    1
  2856  1135  1146   ar
  2857  1135  1069    1
  2858  3511  3522   ar
  2859  3511  3445    1
  2860   739   750   ar
  2861   739   673    1
  2862  1531  1542    1
  2863  1531  1465    1
  2864   343   354    1
  2865   343   277    1
  2866  1927  1938   ar
  2867  1927  1861    1
  2868  2323  2334   ar
  2869  2323  2257    1
  2870  2719  2730    1
  2871  2719  2653    1
  2872  2730  2732    2
  2873   750   752    1
  2874  3522  3524    1
  2875  1146  1148    1
  2876  1938  1940    1
  2877  1542  1544    2
  2878  2334  2336    1
  2879  3126  3128    1
  2880   354   356    2
  2881  1457  1564    1
  2882  1457  1562    1
  2883  1457  1552    1
  2884  2249  2356    1
  2885  2249  2354    1
  2886  2249  2344    1
  2887  1853  1960    1
  2888  1853  1958    1
  2889  1853  1948    1
  2890  1061  1168    1
  2891  1061  1166    1
  2892  1061  1156    1
  2893  2645  2752    1
  2894  2645  2750    1
  2895  2645  2740    1
  2896   269   376    1
  2897   269   374    1
  2898   269   364    1
  2899  3041  3148    1
  2900  3041  3146    1
  2901  3041  3136    1
  2902  3437  3544    1
  2903  3437  3542    1
  2904  3437  3532    1
  2905   665   772    1
  2906   665   770    1
  2907   665   760    1
  2908  3434  3539    1
  2909  3434  3537    1
  2910  3434  3535    1
  2911  1058  1163    1
  2912  1058  1161    1
  2913  1058  1159    1
  2914  2246  2351    1
  2915  2246  2349    1
  2916  2246  2347    1
  2917  1454  1559    1
  2918  1454  1557    1
  2919  1454  1555    1
  2920  1850  1955    1
  2921  1850  1953    1
  2922  1850  1951    1
  2923   266   371    1
  2924   266   369    1
  2925   266   367    1
  2926  2642  2747    1
  2927  2642  2745    1
  2928  2642  2743    1
  2929  3038  3143    1
  2930  3038  3141    1
  2931  3038  3139    1
  2932   662   767    1
  2933   662   765    1
  2934   662   763    1
  2935  2664  2769    1
  2936  1476  1581    1
  2937   684   789    1
  2938   288   393    1
  2939  1080  1185    1
  2940  2268  2373    1
  2941  3456  3561    1
  2942  1872  1977    1
  2943  3060  3165    1
  2944  2732  2674    1
  2945  3524  3069    1
  2946  3524  3466    1
  2947   356   298    1
  2948   752   297    1
  2949   752   694    1
  2950  3128  2673    1
  2951  3128  3070    1
  2952  1544  1486    1
  2953  1148   693    1
  2954  1148  1090    1
  2955  1940  1485    1
  2956  1940  1882    1
  2957  2336  1881    1
  2958  2336  2278    1
  2959  1960  1852    1
  2960  2356  2248    1
  2961  2752  2644    1
  2962  1168  1060    1
  2963  3148  3040    1
  2964  1564  1456    1
  2965   772   664    1
  2966  3544  3436    1
  2967   376   268    1
  2968   371   272    1
  2969  1559  1460    1
  2970   767   668    1
  2971  1163  1064    1
  2972  1955  1856    1
  2973  2351  2252    1
  2974  3539  3440    1
  2975  2747  2648    1
  2976  3143  3044    1
  2977  1161  1064    1
  2978  2349  2252    1
  2979  3141  3044    1
  2980   369   272    1
  2981   765   668    1
  2982  1953  1856    1
  2983  1557  1460    1
  2984  2745  2648    1
  2985  3537  3440    1
  2986  2750  2644    1
  2987  1166  1060    1
  2988  3146  3040    1
  2989  1562  1456    1
  2990   770   664    1
  2991   374   268    1
  2992  3542  3436    1
  2993  1958  1852    1
  2994  2354  2248    1
  2995  1185  1064    1
  2996  3561  3440    1
  2997  2373  2252    1
  2998   789   668    1
  2999  1977  1856    1
  3000  1581  1460    1
  3001   393   272    1
  3002  3165  3044    1
  3003  2769  2648    1
  3004   364   310    1
  3005  1948  1894    1
  3006  1156  1102    1
  3007  2740  2686    1
  3008  3136  3082    1
  3009  1552  1498    1
  3010  2344  2290    1
  3011  3532  3478    1
  3012   760   706    1
  3013  1555  1495    1
  3014  3535  3475    1
  3015  2743  2683    1
  3016   367   307    1
  3017  1951  1891    1
  3018  2347  2287    1
  3019   763   703    1
  3020  1159  1099    1
  3021  3139  3079    1
  3022  1460  1567    1
  3023  1460  1549    1
  3024  1460  1565    1
  3025  2252  2359    1
  3026  2252  2341    1
  3027  2252  2357    1
  3028   668   775    1
  3029   668   757    1
  3030   668   773    1
  3031  3044  3151    1
  3032  3044  3133    1
  3033  3044  3149    1
  3034  1856  1963    1
  3035  1856  1945    1
  3036  1856  1961    1
  3037  1064  1171    1
  3038  1064  1153    1
  3039  1064  1169    1
  3040  2648  2755    1
  3041  2648  2737    1
  3042  2648  2753    1
  3043  3440  3547    1
  3044  3440  3529    1
  3045  3440  3545    1
  3046   272   379    1
  3047   272   361    1
  3048   272   377    1
  3049  1852  1969    1
  3050  1852  1949    1
  3051  1852  1971    1
  3052  2248  2365    1
  3053  2248  2345    1
  3054  2248  2367    1
  3055  1456  1573    1
  3056  1456  1553    1
  3057  1456  1575    1
  3058   664   781    1
  3059   664   761    1
  3060   664   783    1
  3061  3040  3157    1
  3062  3040  3137    1
  3063  3040  3159    1
  3064  1060  1177    1
  3065  1060  1157    1
  3066  1060  1179    1
  3067   268   385    1
  3068   268   365    1
  3069   268   387    1
  3070  3436  3553    1
  3071  3436  3533    1
  3072  3436  3555    1
  3073  2644  2761    1
  3074  2644  2741    1
  3075  2644  2763    1
  3076  1086  1110    1
  3077  2274  2298    1
  3078  1878  1902    1
  3079   690   714    1
  3080   294   318    1
  3081  2670  2694    1
  3082  3462  3486    1
  3083  1482  1506    1
  3084  3066  3090    1
  3085  1876  1905    1
  3086  2668  2697    1
  3087   688   717    1
  3088  1480  1509    1
  3089  2272  2301    1
  3090  1084  1113    1
  3091  3460  3489    1
  3092   292   321    1
  3093  3064  3093    1
  3094   706   761    1
  3095   706   710    1
  3096  1102  1157    1
  3097  1102  1106    2
  3098  3478  3533    1
  3099  3478  3482    2
  3100  2686  2741    1
  3101  2686  2690    1
  3102  3082  3137    1
  3103  3082  3086    1
  3104  1894  1949    1
  3105  1894  1898    1
  3106   310   365    1
  3107   310   314    1
  3108  1498  1553    1
  3109  1498  1502    1
  3110  2290  2345    1
  3111  2290  2294    2
  3112   703   757    1
  3113   703   707    1
  3114  1099  1153    1
  3115  1099  1103    1
  3116  3475  3529    1
  3117  3475  3479    2
  3118  3079  3133    1
  3119  3079  3083    2
  3120   307   361    1
  3121   307   311    1
  3122  1891  1945    1
  3123  1891  1895    1
  3124  1495  1549    1
  3125  1495  1499    1
  3126  2683  2737    1
  3127  2683  2687    2
  3128  2287  2341    1
  3129  2287  2291    1
  3130  1177  1125    1
  3131   781   729    1
  3132  1573  1521    1
  3133  2761  2709    1
  3134  3157  3105    1
  3135  2365  2313    1
  3136  1969  1917    1
  3137   385   333    1
  3138  3553  3501    1
  3139  1567  1521    1
  3140   775   729    1
  3141  3151  3105    1
  3142  2359  2313    1
  3143  2755  2709    1
  3144  1963  1917    1
  3145  3547  3501    1
  3146   379   333    1
  3147  1171  1125    1
  3148   387   331    1
  3149  1179  1123    1
  3150  1575  1519    1
  3151  3555  3499    1
  3152  1971  1915    1
  3153   783   727    1
  3154  2367  2311    1
  3155  2763  2707    1
  3156  3159  3103    1
  3157  1961  1915    1
  3158  1169  1123    1
  3159  1565  1519    1
  3160   773   727    1
  3161   377   331    1
  3162  2357  2311    1
  3163  3149  3103    1
  3164  3545  3499    1
  3165  2753  2707    1
  3166   729   721    1
  3167  2313  2305    2
  3168  3105  3097    2
  3169   333   325    1
  3170  1917  1909    1
  3171  2709  2701    2
  3172  3501  3493    2
  3173  1125  1117    2
  3174  1521  1513    1
  3175  3486  3482    1
  3176  3090  3086   ar
  3177  3090  3488   ar
  3178  2694  2690   ar
  3179  2694  3092   ar
  3180  1506  1502   ar
  3181  1506  1904   ar
  3182  1110  1106    1
  3183   318   314   ar
  3184   318   716   ar
  3185  1902  1898   ar
  3186  1902  2300   ar
  3187  2298  2294    1
  3188   714   710   ar
  3189   714  1112   ar
  3190  1905  1895   ar
  3191  1905  3088   ar
  3192  3093  3083    1
  3193   717   707   ar
  3194   717  1900   ar
  3195  3489  3479    1
  3196  1113  1103   ar
  3197  1113  2296   ar
  3198   321   311   ar
  3199   321  1504   ar
  3200  2301  2291   ar
  3201  2301  3484   ar
  3202  1509  1499   ar
  3203  1509  2692   ar
  3204  2697  2687    1
  3205  2311  2303    1
  3206  3499  3491    1
  3207  1915  1907    1
  3208  2707  2699    1
  3209  1123  1115    1
  3210  3103  3095    1
  3211   331   323    1
  3212   727   719    1
  3213  1519  1511    1
  3214   698  1942    1
  3215  1094  2338    1
  3216   302  1546    1
  3217  1886  3130    1
  3218  1490  2734    1
  3219  2282  3526    1
  3220  3482  3487    1
  3221  1106  1111    1
  3222  2690  2695   ar
  3223  1898  1903   ar
  3224  3086  3091   ar
  3225  2294  2299    1
  3226   314   319   ar
  3227  1502  1507   ar
  3228   710   715   ar
  3229  2291  2295   ar
  3230  1499  1503   ar
  3231   707   711   ar
  3232   311   315   ar
  3233  3083  3087    1
  3234  1103  1107   ar
  3235  1895  1899   ar
  3236  2687  2691    1
  3237  3479  3483    1
  3238   692   751    1
  3239  1088  1147    1
  3240  2672  2731    1
  3241  1484  1543    1
  3242   296   355    1
  3243  3068  3127    1
  3244  3464  3523    1
  3245  1880  1939    1
  3246  2276  2335    1
  3247  2255  2321    1
  3248   275   341    1
  3249  1067  1133    1
  3250  1859  1925    1
  3251  1463  1529    1
  3252  3047  3113    1
  3253   671   737    1
  3254  3443  3509    1
  3255  2651  2717    1
  3256  3097  3113    1
  3257  1513  1529   ar
  3258  1513  2723   ar
  3259  2305  2321    1
  3260  2305  3515    1
  3261  2701  2717    1
  3262  3493  3509    1
  3263  1909  1925   ar
  3264  1909  3119   ar
  3265  1117  1133    1
  3266  1117  2327    1
  3267   325   341   ar
  3268   325  1535   ar
  3269   721   737   ar
  3270   721  1931   ar
  3271  3054  3121    1
  3272  2658  2725    1
  3273  1866  1933    1
  3274  2262  2329    1
  3275   282   349    1
  3276  1470  1537    1
  3277  3450  3517    1
  3278  1074  1141    1
  3279   678   745    1
  3280  3461  3484    1
  3281  1877  1900    1
  3282  3065  3088    1
  3283   689   712    1
  3284   293   316    1
  3285  1085  1108    1
  3286  2669  2692    1
  3287  2273  2296    1
  3288  1481  1504    1
  3289   323   349   ar
  3290   323   339   ar
  3291   719   745   ar
  3292   719   735   ar
  3293  2303  2329   ar
  3294  2303  2319   ar
  3295  3095  3121   ar
  3296  3095  3111   ar
  3297  3491  3517   ar
  3298  3491  3507   ar
  3299  1511  1537   ar
  3300  1511  1527   ar
  3301  1907  1933   ar
  3302  1907  1923   ar
  3303  1115  1141   ar
  3304  1115  1131   ar
  3305  2699  2725   ar
  3306  2699  2715   ar
  3307   685   716    1
  3308  2269  2300    1
  3309  3061  3092    1
  3310  1873  1904    1
  3311  2665  2696    1
  3312  1081  1112    1
  3313  3457  3488    1
  3314  1477  1508    1
  3315   289   320    1
  3316  1546  1489    1
  3317  1546  1535    1
  3318  2734  2677    1
  3319  2734  2723    1
  3320  3130  3073    1
  3321  3130  3119    1
  3322  2338  2281    1
  3323  2338  2327    1
  3324   754   697    1
  3325   754   743    2
  3326   358   301    1
  3327   358   347    2
  3328  3526  3469    1
  3329  3526  3515    1
  3330  1942  1885    1
  3331  1942  1931    1
  3332  1150  1093    1
  3333  1150  1139    1
  3334   341   744   ar
  3335  1925  2328   ar
  3336   737  1140   ar
  3337  1529  1932   ar
  3338  3113  3516    2
  3339  2717  3120    2
  3340  2296  2292   ar
  3341   316   312    1
  3342  3088  3084   ar
  3343  2692  2688   ar
  3344  1108  1104    1
  3345  1504  1500   ar
  3346  1900  1896   ar
  3347  3484  3480   ar
  3348   712   708    1
  3349  2725  2716   ar
  3350   349   340   ar
  3351  3517  3508   ar
  3352  1933  1924   ar
  3353  2329  2320   ar
  3354  1141  1132   ar
  3355   745   736   ar
  3356  3121  3112   ar
  3357  1537  1528   ar
  3358  3092  3085   ar
  3359  1904  1897   ar
  3360   320   313    1
  3361  2300  2293   ar
  3362  3488  3481   ar
  3363  1112  1105   ar
  3364   716   709   ar
  3365  1508  1501    1
  3366  2696  2689    1
  3367  1147  1087    1
  3368  1147  1131    1
  3369  1939  1879    1
  3370  1939  1923    1
  3371   751   691    1
  3372   751   735    1
  3373  1543  1483    1
  3374  1543  1527    1
  3375   355   295    1
  3376   355   339    1
  3377  2335  2275    1
  3378  2335  2319    1
  3379  3127  3067    1
  3380  3127  3111    1
  3381  3523  3463    1
  3382  3523  3507    1
  3383  2731  2671    1
  3384  2731  2715    1
  3385  1535  1926   ar
  3386  3119  3510   ar
  3387   347   738    1
  3388  2723  3114   ar
  3389  1931  2322   ar
  3390   743  1134    1
  3391  1527  1538   ar
  3392  1131  1142   ar
  3393  1923  1934   ar
  3394  3507  3518   ar
  3395  3111  3122   ar
  3396  2319  2330   ar
  3397   735   746   ar
  3398  2715  2726   ar
  3399   339   350   ar
  3400  3076  3131    1
  3401  2284  2339    1
  3402   304   359    1
  3403   700   755    1
  3404  1096  1151    1
  3405  3472  3527    1
  3406  2680  2735    1
  3407  1492  1547    1
  3408  1888  1943    1
  3409   340   273    1
  3410   340   324   ar
  3411  2716  2649    1
  3412  2716  2700   ar
  3413  1132  1065    1
  3414  1132  1116   ar
  3415  3508  3441    1
  3416  3508  3492   ar
  3417  3112  3045    1
  3418  3112  3096   ar
  3419  1528  1461    1
  3420  1528  1512   ar
  3421   736   669    1
  3422   736   720   ar
  3423  2320  2253    1
  3424  2320  2304   ar
  3425  1924  1857    1
  3426  1924  1908   ar
  3427   744   680    1
  3428   744  1910   ar
  3429  2724  2660    1
  3430  3516  3452    1
  3431  1140  1076    1
  3432  1140  2306   ar
  3433  3120  3056    1
  3434  1932  1868    1
  3435  1932  3098   ar
  3436  2328  2264    1
  3437  2328  3494   ar
  3438   348   284    1
  3439   348  1514    1
  3440  1536  1472    1
  3441  1536  2702    1
  3442  3487  3458    1
  3443  1903  1874    1
  3444  1903  2297   ar
  3445  1507  1478    1
  3446  1507  1901   ar
  3447  2299  2270    1
  3448  3091  3062    1
  3449  3091  3485   ar
  3450  2695  2666    1
  3451  2695  3089   ar
  3452   319   290    1
  3453   319   713   ar
  3454   715   686    1
  3455   715  1109   ar
  3456  1111  1082    1
  3457  1530  1514    1
  3458  1530  1462    1
  3459   738   722    1
  3460   738   670    1
  3461  3510  3494   ar
  3462  3510  3442    1
  3463  3114  3098   ar
  3464  3114  3046    1
  3465   342   326    1
  3466   342   274    1
  3467  2322  2306   ar
  3468  2322  2254    1
  3469  2718  2702    1
  3470  2718  2650    1
  3471  1134  1118    1
  3472  1134  1066    1
  3473  1926  1910   ar
  3474  1926  1858    1
  3475  2330  2304   ar
  3476  2330  2263    1
  3477   350   324   ar
  3478   350   283    1
  3479   746   720   ar
  3480   746   679    1
  3481  1142  1116   ar
  3482  1142  1075    1
  3483  3122  3096   ar
  3484  3122  3055    1
  3485  1538  1512   ar
  3486  1538  1471    1
  3487  1934  1908   ar
  3488  1934  1867    1
  3489  3518  3492   ar
  3490  3518  3451    1
  3491  2726  2700   ar
  3492  2726  2659    1
  3493   711   755    1
  3494   711  1906   ar
  3495  2691  2735    1
  3496  2295  2339    1
  3497  2295  3490   ar
  3498  1107  1151    1
  3499  1107  2302   ar
  3500  1503  1547    1
  3501  1503  2698   ar
  3502  3087  3131    1
  3503   315   359    1
  3504   315  1510   ar
  3505  1899  1943    1
  3506  1899  3094   ar
  3507  3483  3527    1
  3508  1116  1124    1
  3509  3492  3500    1
  3510  2700  2708    1
  3511   324   332    1
  3512   720   728    1
  3513  3096  3104    1
  3514  2304  2312    1
  3515  1512  1520    1
  3516  1908  1916    1
  3517  2306  2314    1
  3518  3098  3106    1
  3519  1910  1918    1
  3520  1514  1522    2
  3521   326   334    2
  3522  1118  1126    2
  3523  2702  2710    2
  3524   722   730    2
  3525  3494  3502    1
  3526  3131  3075    1
  3527  3527  3471    1
  3528  2339  2283    1
  3529  1547  1491    1
  3530  1151  1095    1
  3531   359   303    1
  3532   755   699    1
  3533  2735  2679    1
  3534  1943  1887    1
  3535   312   322    1
  3536   312   308    2
  3537  2292  2302   ar
  3538  2292  2288    1
  3539  2688  2698   ar
  3540  2688  2684    1
  3541   708   718    1
  3542   708   704    2
  3543  3480  3490   ar
  3544  3480  3476    1
  3545  1500  1510   ar
  3546  1500  1496    1
  3547  3084  3094   ar
  3548  3084  3080    1
  3549  1104  1114    1
  3550  1104  1100    2
  3551  1896  1906   ar
  3552  1896  1892    1
  3553  1105  1109   ar
  3554  1105  1101    1
  3555  1501  1505    1
  3556  1501  1497    2
  3557  1897  1901   ar
  3558  1897  1893    1
  3559  3085  3089   ar
  3560  3085  3081    1
  3561  2293  2297   ar
  3562  2293  2289    1
  3563  2689  2693    1
  3564  2689  2685    2
  3565   709   713   ar
  3566   709   705    1
  3567   313   317    1
  3568   313   309    2
  3569  3481  3485   ar
  3570  3481  3477    1
  3571  1916  1962    1
  3572  1916  1972    1
  3573  3500  3546    1
  3574  3500  3556    1
  3575   728   774    1
  3576   728   784    1
  3577  2708  2754    1
  3578  2708  2764    1
  3579  1124  1170    1
  3580  1124  1180    1
  3581   332   378    1
  3582   332   388    1
  3583  2312  2358    1
  3584  2312  2368    1
  3585  1520  1566    1
  3586  1520  1576    1
  3587  3104  3150    1
  3588  3104  3160    1
  3589  2693  2736    1
  3590  1901  1944    1
  3591   317   360    1
  3592  1505  1548    1
  3593  3089  3132    1
  3594  2297  2340    1
  3595  1109  1152    1
  3596  3485  3528    1
  3597   713   756    1
  3598  1114  1083    1
  3599  2302  2271    1
  3600  3094  3063    1
  3601   322   291    1
  3602  1510  1479    1
  3603  3490  3459    1
  3604  1906  1875    1
  3605   718   687    1
  3606  2698  2667    1
  3607   774   667    1
  3608  1170  1063    1
  3609  3546  3439    1
  3610  3150  3043    1
  3611   378   271    1
  3612  1566  1459    1
  3613  1962  1855    1
  3614  2358  2251    1
  3615  2754  2647    1
  3616  1522  1574    1
  3617  1522  1568    1
  3618  2314  2366    1
  3619  2314  2360    1
  3620  3502  3554    1
  3621  3502  3548    1
  3622   730   782    1
  3623   730   776    1
  3624  1126  1178    1
  3625  1126  1172    1
  3626  2710  2762    1
  3627  2710  2756    1
  3628  3106  3158    1
  3629  3106  3152    1
  3630  1918  1970    1
  3631  1918  1964    1
  3632   334   386    1
  3633   334   380    1
  3634  2368  2247    1
  3635  3556  3435    1
  3636  1180  1059    1
  3637  1576  1455    1
  3638  2764  2643    1
  3639   784   663    1
  3640   388   267    1
  3641  1972  1851    1
  3642  3160  3039    1
  3643  2342  2288    1
  3644  2342  2251    1
  3645   362   308    1
  3646   362   271    1
  3647  1946  1892    1
  3648  1946  1855    1
  3649  2738  2684    1
  3650  2738  2647    1
  3651  3530  3476    1
  3652  3530  3439    1
  3653  1154  1100    1
  3654  1154  1063    1
  3655  1550  1496    1
  3656  1550  1459    1
  3657   758   704    1
  3658   758   667    1
  3659  3134  3080    1
  3660  3134  3043    1
  3661  1950  1893    1
  3662  1950  1851    1
  3663  2742  2685    1
  3664  2742  2643    1
  3665  3534  3477    1
  3666  3534  3435    1
  3667  2346  2289    1
  3668  2346  2247    1
  3669  1158  1101    1
  3670  1158  1059    1
  3671   366   309    1
  3672   366   267    1
  3673   762   705    1
  3674   762   663    1
  3675  3138  3081    1
  3676  3138  3039    1
  3677  1554  1497    1
  3678  1554  1455    1
  3679  1178  1059    1
  3680  3158  3039    1
  3681  1574  1455    1
  3682  1970  1851    1
  3683  2762  2643    1
  3684   386   267    1
  3685  3554  3435    1
  3686   782   663    1
  3687  2366  2247    1
  3688  1964  1855    1
  3689  1172  1063    1
  3690  2756  2647    1
  3691  3548  3439    1
  3692  1568  1459    1
  3693  2360  2251    1
  3694   380   271    1
  3695   776   667    1
  3696  3152  3043    1
  3697  1892  1952    1
  3698   308   368    1
  3699  2684  2744    1
  3700  1496  1556    1
  3701   704   764    1
  3702  2288  2348    1
  3703  3080  3140    1
  3704  1100  1160    1
  3705  3476  3536    1
  3706  2289  2343    1
  3707  2685  2739    1
  3708  1497  1551    1
  3709  3477  3531    1
  3710  1893  1947    1
  3711   705   759    1
  3712   309   363    1
  3713  1101  1155    1
  3714  3081  3135    1
  3715  2340  2285    1
  3716  2340  2286    1
  3717  1548  1493    1
  3718  1548  1494    1
  3719   756   701    1
  3720   756   702    1
  3721  3132  3077    1
  3722  3132  3078    1
  3723  3528  3473    1
  3724  3528  3474    1
  3725  1944  1889    1
  3726  1944  1890    1
  3727   360   305    1
  3728   360   306    1
  3729  1152  1097    1
  3730  1152  1098    1
  3731  2736  2681    1
  3732  2736  2682    1
  3733  1059  1165    1
  3734  1059  1167    1
  3735  2247  2353    1
  3736  2247  2355    1
  3737  1851  1957    1
  3738  1851  1959    1
  3739  1455  1561    1
  3740  1455  1563    1
  3741   663   769    1
  3742   663   771    1
  3743  3435  3541    1
  3744  3435  3543    1
  3745   267   373    1
  3746   267   375    1
  3747  2643  2749    1
  3748  2643  2751    1
  3749  3039  3145    1
  3750  3039  3147    1
  3751  3439  3562    1
  3752  3439  3538    1
  3753  3439  3540    1
  3754  1855  1978    1
  3755  1855  1954    1
  3756  1855  1956    1
  3757   271   394    1
  3758   271   370    1
  3759   271   372    1
  3760  1459  1582    1
  3761  1459  1558    1
  3762  1459  1560    1
  3763  1063  1186    1
  3764  1063  1162    1
  3765  1063  1164    1
  3766  3043  3166    1
  3767  3043  3142    1
  3768  3043  3144    1
  3769  2251  2374    1
  3770  2251  2350    1
  3771  2251  2352    1
  3772   667   790    1
  3773   667   766    1
  3774   667   768    1
  3775  2647  2770    1
  3776  2647  2746    1
  3777  2647  2748    1
  3778  3536  3433    1
  3779   368   265    1
  3780  1160  1057    1
  3781  3140  3037    1
  3782  2744  2641    1
  3783   764   661    1
  3784  2348  2245    1
  3785  1952  1849    1
  3786  1556  1453    1
  3787   363   270    1
  3788   759   666    1
  3789  1155  1062    1
  3790  3135  3042    1
  3791  2343  2250    1
  3792  1551  1458    1
  3793  1947  1854    1
  3794  2739  2646    1
  3795  3531  3438    1
  3796  2675  2733    1
  3797  3071  3129    1
  3798  1883  1941    1
  3799  1487  1545    1
  3800  3467  3525    1
  3801  2279  2337    1
  3802   299   357    1
  3803   695   753    1
  3804  1091  1149    1
  3805  2770  2663    1
  3806  1978  1871    1
  3807  1186  1079    1
  3808   790   683    1
  3809  3562  3455    1
  3810  2374  2267    1
  3811  1582  1475    1
  3812  3166  3059    1
  3813   394   287    1
  3814  1558  1453    1
  3815  3142  3037    1
  3816  3538  3433    1
  3817  2746  2641    1
  3818  1954  1849    1
  3819   766   661    1
  3820  2350  2245    1
  3821  1162  1057    1
  3822   370   265    1
  3823   373   270    1
  3824  2353  2250    1
  3825  3145  3042    1
  3826  1561  1458    1
  3827  3541  3438    1
  3828  1957  1854    1
  3829  1165  1062    1
  3830   769   666    1
  3831  2749  2646    1
  3832   696   753    1
  3833   300   357    1
  3834  2280  2337    1
  3835  3072  3129    1
  3836  1884  1941    1
  3837  3468  3525    1
  3838  2676  2733    1
  3839  1488  1545    1
  3840  1092  1149    1
  3841  3540  3433    1
  3842   372   265    1
  3843  2748  2641    1
  3844  2352  2245    1
  3845  1956  1849    1
  3846  1560  1453    1
  3847  1164  1057    1
  3848   768   661    1
  3849  3144  3037    1
  3850  1545  1539    1
  3851  3129  3123    1
  3852   357   351    1
  3853  2337  2331    1
  3854  2733  2727    1
  3855  1149  1143    1
  3856  1941  1935    1
  3857   753   747    1
  3858  3525  3519    1
  3859  1563  1458    1
  3860  3147  3042    1
  3861   375   270    1
  3862  1959  1854    1
  3863  2355  2250    1
  3864  1167  1062    1
  3865  3543  3438    1
  3866   771   666    1
  3867  2751  2646    1
  3868  3050  3118    1
  3869  2654  2722    1
  3870  2258  2326    1
  3871  3446  3514    1
  3872   674   742    1
  3873   278   346    1
  3874  1466  1534    1
  3875  1862  1930    1
  3876  1070  1138    1
  3877  2260  2333    1
  3878   280   353    1
  3879  3448  3521    1
  3880   676   749    1
  3881  1468  1541    1
  3882  2656  2729    1
  3883  1864  1937    1
  3884  3052  3125    1
  3885  1072  1145    1
  3886   276   344    1
  3887  1068  1136    1
  3888   672   740    1
  3889  2256  2324    1
  3890  2652  2720    1
  3891  3048  3116    1
  3892  3444  3512    1
  3893  1464  1532    1
  3894  1860  1928    1
  3895  1849  1974    1
  3896  1849  1976    1
  3897  1849  1980    1
  3898  2641  2766    1
  3899  2641  2768    1
  3900  2641  2772    1
  3901  1453  1578    1
  3902  1453  1580    1
  3903  1453  1584    1
  3904   265   390    1
  3905   265   392    1
  3906   265   396    1
  3907  3433  3558    1
  3908  3433  3560    1
  3909  3433  3564    1
  3910  1057  1182    1
  3911  1057  1184    1
  3912  1057  1188    1
  3913   661   786    1
  3914   661   788    1
  3915   661   792    1
  3916  2245  2370    1
  3917  2245  2372    1
  3918  2245  2376    1
  3919  3037  3162    1
  3920  3037  3164    1
  3921  3037  3168    1
  3922  1062  1175    1
  3923  1062  1173    1
  3924  1458  1571    1
  3925  1458  1569    1
  3926  1854  1967    1
  3927  1854  1965    1
  3928  2646  2759    1
  3929  2646  2757    1
  3930  2250  2363    1
  3931  2250  2361    1
  3932   270   383    1
  3933   270   381    1
  3934  3438  3551    1
  3935  3438  3549    1
  3936   666   779    1
  3937   666   777    1
  3938  3042  3155    1
  3939  3042  3153    1
  3940  1935  3118    2
  3941  1935  1913    1
  3942  1539  2722    2
  3943  1539  1517    1
  3944   747  1930    2
  3945   747   725    1
  3946  2331  3514    2
  3947  2331  2309    1
  3948  3519  3497    1
  3949  2727  2705    1
  3950   351  1534    2
  3951   351   329    1
  3952  1143  2326    2
  3953  1143  1121    1
  3954  3123  3101    1
  3955  3514  3498    1
  3956  1930  1914    1
  3957   346   330    1
  3958  2722  2706    1
  3959   742   726    1
  3960  1534  1518    1
  3961  3118  3102    1
  3962  2326  2310    1
  3963  1138  1122    1
  3964   383   337    1
  3965  2759  2713    1
  3966  3155  3109    1
  3967   779   733    1
  3968  3551  3505    1
  3969  1175  1129    1
  3970  1967  1921    1
  3971  2363  2317    1
  3972  1571  1525    1
  3973  1145   740    2
  3974  3125  2720    2
  3975  3521  3116    2
  3976  1937  1532    2
  3977  2333  1928    2
  3978   749   344    2
  3979   786   734    1
  3980  1182  1130    1
  3981  1974  1922    1
  3982  2766  2714    1
  3983   390   338    1
  3984  1578  1526    1
  3985  3558  3506    1
  3986  2370  2318    1
  3987  3162  3110    1
  3988  2309  2317    2
  3989   329   337    2
  3990   725   733    2
  3991  2705  2713    2
  3992  3497  3505    2
  3993  1517  1525    2
  3994  1121  1129    2
  3995  1913  1921    2
  3996  3101  3109    2
  3997   681   792    1
  3998  1473  1584    1
  3999  1869  1980    1
  4000   285   396    1
  4001  2265  2376    1
  4002  1077  1188    1
  4003  3057  3168    1
  4004  2661  2772    1
  4005  3453  3564    1
  4006   330   338    2
  4007  2310  2318    2
  4008  1122  1130    2
  4009  3498  3506    2
  4010  1518  1526    2
  4011   726   734    2
  4012  3102  3110    2
  4013  1914  1922    2
  4014  2706  2714    2
