@<TRIPOS>MOLECULE
frame0035
 1536 2438 0 0 0
SMALL
NO_CHARGES

@<TRIPOS>ATOM
      1 Ti1          8.7475    -5.2598    11.0113 Ti        1 MOL       0.0000
      2 Ti2          1.4823     3.6949     8.3945 Ti        1 MOL       0.0000
      3 Ti3         -8.0935     8.4193     9.1257 Ti        1 MOL       0.0000
      4 Ti4         -3.9633     3.8996     8.7320 Ti        1 MOL       0.0000
      5 Ti5         -4.9273     6.0595     7.1687 Ti        1 MOL       0.0000
      6 Ti6         -7.4146     7.3938    11.8899 Ti        1 MOL       0.0000
      7 Ti7          4.5670     9.1838     8.6732 Ti        1 MOL       0.0000
      8 Ti8         -0.6625     2.7035     9.4008 Ti        1 MOL       0.0000
      9 H1           6.8330    -2.1836    12.9828 H         1 MOL       0.0000
     10 H2           4.2212     0.7056     7.1721 H         1 MOL       0.0000
     11 H3           0.2343     8.5483     8.2243 H         1 MOL       0.0000
     12 H4           2.4238     5.4612    11.2767 H         1 MOL       0.0000
     13 H5          -4.2352     4.7072     9.9808 H         1 MOL       0.0000
     14 H6           8.6584     4.4322     5.2663 H         1 MOL       0.0000
     15 H7          -2.9533     5.9026     4.7289 H         1 MOL       0.0000
     16 H8           1.0163     4.2157     5.6422 H         1 MOL       0.0000
     17 H9          -4.6947     9.9148     6.3073 H         1 MOL       0.0000
     18 H10         -7.4892     3.1291    12.4033 H         1 MOL       0.0000
     19 H11          6.5355    -3.1746     8.0350 H         1 MOL       0.0000
     20 H12          3.6896     1.2153    11.0309 H         1 MOL       0.0000
     21 H13         10.1034    -2.2019     5.1300 H         1 MOL       0.0000
     22 H14          7.1106     5.2496     8.9761 H         1 MOL       0.0000
     23 H15         -6.8284     7.9545     9.7636 H         1 MOL       0.0000
     24 H16          4.8866    -1.4613     7.2891 H         1 MOL       0.0000
     25 H17         -1.9234     4.6167     8.2774 H         1 MOL       0.0000
     26 H18         -3.8500    -5.6342    10.8572 H         1 MOL       0.0000
     27 H19          5.9307     2.6304     0.3151 H         1 MOL       0.0000
     28 H20          4.9734     1.7125     0.0906 H         1 MOL       0.0000
     29 H21          4.0612     6.5866     1.7114 H         1 MOL       0.0000
     30 H22         -0.5749     0.5927    13.0849 H         1 MOL       0.0000
     31 H23         -2.5204     6.5350    10.4525 H         1 MOL       0.0000
     32 H24         -4.1761     6.9644    10.8206 H         1 MOL       0.0000
     33 C1           1.2673     1.6702    11.1730 C         1 MOL       0.0000
     34 C2           8.9926    -3.6444     7.8199 C         1 MOL       0.0000
     35 C3          -5.4731     8.4547     8.9833 C         1 MOL       0.0000
     36 C4          -6.7473     4.6330     9.7077 C         1 MOL       0.0000
     37 C5           1.8529     0.7868    12.3120 C         1 MOL       0.0000
     38 C6           8.3647    -2.7594     6.6914 C         1 MOL       0.0000
     39 C7          -4.1514     8.6121     8.1994 C         1 MOL       0.0000
     40 C8          -8.0744     4.4772    10.5854 C         1 MOL       0.0000
     41 C9           5.7732     7.1251     0.5352 C         1 MOL       0.0000
     42 C10          9.0786    -2.0788     5.3531 C         1 MOL       0.0000
     43 C11         -3.1248     7.9302     8.8355 C         1 MOL       0.0000
     44 C12          6.9112     4.6111    10.0710 C         1 MOL       0.0000
     45 C13         -8.2957     3.6510    11.9802 C         1 MOL       0.0000
     46 C14         -3.8922     9.4259     6.7597 C         1 MOL       0.0000
     47 C15          3.1811     0.6498    12.0532 C         1 MOL       0.0000
     48 C16          7.0541    -2.6359     6.9867 C         1 MOL       0.0000
     49 C17          4.9358     1.9140     5.0606 C         1 MOL       0.0000
     50 C18         -6.3205     9.9501     7.7373 C         1 MOL       0.0000
     51 C19          3.1702     6.5532     9.0416 C         1 MOL       0.0000
     52 C20          9.5382     5.6474     3.2307 C         1 MOL       0.0000
     53 C21         -2.7894     1.1840     9.8989 C         1 MOL       0.0000
     54 C22          7.1222     8.3906     5.9470 C         1 MOL       0.0000
     55 C23          3.9889     2.9944     5.6944 C         1 MOL       0.0000
     56 C24         -5.5136     8.8924     6.9398 C         1 MOL       0.0000
     57 C25          2.6735     5.9222     8.1352 C         1 MOL       0.0000
     58 C26         10.1980     6.1010     4.1595 C         1 MOL       0.0000
     59 C27          4.9161     0.7597     5.9751 C         1 MOL       0.0000
     60 C28         10.7947     4.8308     1.0990 C         1 MOL       0.0000
     61 C29          2.9888     6.1690    10.7371 C         1 MOL       0.0000
     62 C30         -0.3559     7.8597     8.7697 C         1 MOL       0.0000
     63 C31          4.9997     1.7418     2.4466 C         1 MOL       0.0000
     64 C32          8.7826     4.7459     3.9798 C         1 MOL       0.0000
     65 C33         -4.2366     3.8096    10.6869 C         1 MOL       0.0000
     66 C34         -0.6857    -4.7623     9.4030 C         1 MOL       0.0000
     67 N1          -7.2571     8.7460    10.3118 N         1 MOL       0.0000
     68 N2           5.1780     2.2058     0.8299 N         1 MOL       0.0000
     69 N3           4.4908     7.1989     0.8496 N         1 MOL       0.0000
     70 N4          -3.2901     7.1421    10.2372 N         1 MOL       0.0000
     71 O1           0.1261     1.6426    11.1545 O         1 MOL       0.0000
     72 O2          10.2048    -4.0517     7.3313 O         1 MOL       0.0000
     73 O3          -5.7391     7.9345    10.4548 O         1 MOL       0.0000
     74 O4          -6.6132     5.5899     8.6908 O         1 MOL       0.0000
     75 O5          -5.8137     3.7997    10.0005 O         1 MOL       0.0000
     76 O6          -6.3102     8.8147     8.1792 O         1 MOL       0.0000
     77 O7           1.9256     2.4277    10.2080 O         1 MOL       0.0000
     78 O8           8.2722    -3.9687     9.2144 O         1 MOL       0.0000
     79 O9           0.6935     2.4729     7.7530 O         1 MOL       0.0000
     80 O10         10.2464    -4.6050    10.5259 O         1 MOL       0.0000
     81 O11         -0.2186     4.0402     9.8088 O         1 MOL       0.0000
     82 O12          3.4351     8.2615     9.2298 O         1 MOL       0.0000
     83 O13         -7.6812     6.8989     9.9299 O         1 MOL       0.0000
     84 O14         -4.2895     5.5171     9.0291 O         1 MOL       0.0000
     85 O15         -1.7209    -5.6732    11.1245 O         1 MOL       0.0000
     86 O16         -4.1699     4.2942     6.7879 O         1 MOL       0.0000
     87 O17         -1.7572     1.3782    10.0634 O         1 MOL       0.0000
     88 O18          5.9399     8.8838     6.5128 O         1 MOL       0.0000
     89 O19         -6.0945     5.8312    11.9853 O         1 MOL       0.0000
     90 O20         -5.5454     7.7725     7.6430 O         1 MOL       0.0000
     91 O21          3.9222     0.4535     0.7300 O         1 MOL       0.0000
     92 O22         -5.8898     6.1856     5.5557 O         1 MOL       0.0000
     93 O23          7.8908     8.0565     6.8359 O         1 MOL       0.0000
     94 O24         -3.6441     2.0509     9.4955 O         1 MOL       0.0000
     95 O25          2.0858     5.0213     8.8638 O         1 MOL       0.0000
     96 O26          7.3103    -5.8765    10.7098 O         1 MOL       0.0000
     97 O27          3.1965     2.8649     7.1254 O         1 MOL       0.0000
     98 O28          7.6999    -4.3371    12.8077 O         1 MOL       0.0000
     99 O29         -2.0923     3.7803     8.5443 O         1 MOL       0.0000
    100 O30          5.9729     8.3410     9.7210 O         1 MOL       0.0000
    101 O31          1.2983     4.7203     6.2267 O         1 MOL       0.0000
    102 O32         -3.4710     6.6041     5.3312 O         1 MOL       0.0000
    103 H25         -1.5089    -3.0393    11.2102 H         1 MOL       0.0000
    104 H26          9.5764     7.8331     4.1065 H         1 MOL       0.0000
    105 H27         -5.2189     4.8754    13.0342 H         1 MOL       0.0000
    106 H28         -1.1428    -0.8642    10.5709 H         1 MOL       0.0000
    107 H29         -5.3083    -1.7596    10.7193 H         1 MOL       0.0000
    108 H30          5.6910     8.2167     4.0619 H         1 MOL       0.0000
    109 H31         -3.5731    -3.4685    11.2320 H         1 MOL       0.0000
    110 H32         -4.9551     0.4230    10.1495 H         1 MOL       0.0000
    111 H33         -2.8923     4.3445    11.6653 H         1 MOL       0.0000
    112 H34          3.9325     2.6565     5.3412 H         1 MOL       0.0000
    113 C35         -3.0203    -0.0954    10.2957 C         1 MOL       0.0000
    114 C36         -3.4272    -2.5195    10.9944 C         1 MOL       0.0000
    115 C37         -3.2265     4.6755    12.8743 C         1 MOL       0.0000
    116 C38          7.5907     8.0617     4.2416 C         1 MOL       0.0000
    117 C39         -4.2067    -0.3416    10.3643 C         1 MOL       0.0000
    118 C40         -2.2571    -2.2778    10.9769 C         1 MOL       0.0000
    119 C41          0.0959    12.0512     0.5403 C         1 MOL       0.0000
    120 C42          8.9070     7.7473     3.4751 C         1 MOL       0.0000
    121 C43          2.2942    11.8620     0.5468 C         1 MOL       0.0000
    122 C44          6.7052     7.9716     3.4453 C         1 MOL       0.0000
    123 C45         -2.0536    -1.0687    10.6300 C         1 MOL       0.0000
    124 C46         -4.4017    -1.5551    10.6921 C         1 MOL       0.0000
    125 N5           7.3214    -3.0016     7.5996 N         1 MOL       0.0000
    126 N6           9.3075    -2.9112     6.2811 N         1 MOL       0.0000
    127 C47          7.3117    -1.9779     6.4742 C         1 MOL       0.0000
    128 C48          8.5484    -1.9264     5.6386 C         1 MOL       0.0000
    129 C49         11.0760    -2.0002     6.4450 C         1 MOL       0.0000
    130 C50          6.2337    -3.1914     9.0316 C         1 MOL       0.0000
    131 C51          8.5440    -3.5385     7.4926 C         1 MOL       0.0000
    132 C52         10.6969    -3.0707     5.9401 C         1 MOL       0.0000
    133 H35          6.4559    -1.2861     6.4937 H         1 MOL       0.0000
    134 H36          8.9276    -1.2238     4.7358 H         1 MOL       0.0000
    135 H37         10.7951    -1.1195     5.7534 H         1 MOL       0.0000
    136 H38          5.6125    -2.2895     9.2495 H         1 MOL       0.0000
    137 H39         10.6534    -1.9012     7.7584 H         1 MOL       0.0000
    138 H40          5.7339    -3.8260     8.7857 H         1 MOL       0.0000
    139 H41         12.1194    -2.1895     6.1571 H         1 MOL       0.0000
    140 H42          4.6094    11.4530     4.5756 H         1 MOL       0.0000
    141 H43          6.6036    -3.5445    10.0825 H         1 MOL       0.0000
    142 H44          8.8503    -4.3207     8.2996 H         1 MOL       0.0000
    143 H45         10.9949    -3.9523     6.6086 H         1 MOL       0.0000
    144 N7           6.6557     0.7980     8.6438 N         1 MOL       0.0000
    145 C53         -7.4681     1.3050    11.7390 C         1 MOL       0.0000
    146 C54          7.4332     4.6272     6.9637 C         1 MOL       0.0000
    147 O33          5.8277    -0.5742    12.1943 O         1 MOL       0.0000
    148 O34          9.3737    -1.4632    10.4446 O         1 MOL       0.0000
    149 O35          7.6311     1.5026     5.3122 O         1 MOL       0.0000
    150 O36          9.2556     2.7512     4.8353 O         1 MOL       0.0000
    151 F1          12.1128     7.7379     0.0764 F         1 MOL       0.0000
    152 F2           5.0095     4.9078    10.2547 F         1 MOL       0.0000
    153 F3          -6.8304     2.0878    12.1317 F         1 MOL       0.0000
    154 F4          10.9305     5.6294     1.4090 F         1 MOL       0.0000
    155 F5           6.3425     5.4190     7.4586 F         1 MOL       0.0000
    156 F6           7.6659     4.7420     5.3202 F         1 MOL       0.0000
    157 S1           7.2367    -0.0224     9.8479 S         1 MOL       0.0000
    158 S2           8.3394     2.0991     5.9962 S         1 MOL       0.0000
    159 N8           0.0850    -0.3273     6.2374 N         1 MOL       0.0000
    160 N9          -1.8899    -0.4285     6.4986 N         1 MOL       0.0000
    161 C55          1.2412     0.1787     5.9830 C         1 MOL       0.0000
    162 C56         -1.0625     0.3383     6.1445 C         1 MOL       0.0000
    163 C57         -0.0197    -1.5532     6.6588 C         1 MOL       0.0000
    164 C58          2.4228    -0.5082     4.8092 C         1 MOL       0.0000
    165 C59         -1.2499    -1.6180     6.8148 C         1 MOL       0.0000
    166 C60         -3.1785    -0.0748     6.2982 C         1 MOL       0.0000
    167 H46          1.3761     0.1520     7.1888 H         1 MOL       0.0000
    168 H47          1.0138     1.1539     5.5320 H         1 MOL       0.0000
    169 H48         -1.2796     1.3157     5.7606 H         1 MOL       0.0000
    170 H49          3.2408    -0.1091     4.7523 H         1 MOL       0.0000
    171 H50          0.8024    -2.2689     6.7316 H         1 MOL       0.0000
    172 H51         -3.8406    -0.4606     7.3693 H         1 MOL       0.0000
    173 H52         -3.4539     0.9393     6.1811 H         1 MOL       0.0000
    174 H53          2.6426    -1.4973     5.2087 H         1 MOL       0.0000
    175 H54         -1.7170    -2.4001     7.1098 H         1 MOL       0.0000
    176 H55          2.3357    -0.4279     3.5644 H         1 MOL       0.0000
    177 H56         12.8326    -1.0001     5.2901 H         1 MOL       0.0000
    178 N10         -0.2368     0.4089     0.2410 N         1 MOL       0.0000
    179 C61          7.0200    11.7185     3.0932 C         1 MOL       0.0000
    180 C62         10.2045    -5.2524    10.8699 C         1 MOL       0.0000
    181 O37         -1.5932     2.5673     1.0343 O         1 MOL       0.0000
    182 O38         -5.6797    12.3034     3.3070 O         1 MOL       0.0000
    183 O39         -3.9154    -4.7649    12.3212 O         1 MOL       0.0000
    184 O40         -4.0749    13.2783     1.1108 O         1 MOL       0.0000
    185 F7           5.9251    11.1314     3.7272 F         1 MOL       0.0000
    186 F8           8.9993    -5.2988    11.0814 F         1 MOL       0.0000
    187 F9           3.6991     4.7050    12.4009 F         1 MOL       0.0000
    188 F10          7.9989    10.7211     2.4249 F         1 MOL       0.0000
    189 F11         -4.7679    -2.9171    10.5557 F         1 MOL       0.0000
    190 F12          5.6040     7.1810     9.9534 F         1 MOL       0.0000
    191 S3          -5.1774    -5.1288    12.8758 S         1 MOL       0.0000
    192 S4          -5.3501    12.9413     1.6442 S         1 MOL       0.0000
    193 Ti9          4.1125   -12.3258    24.1063 Ti        1 MOL       0.0000
    194 Ti10        -3.1527    -3.3711    21.4895 Ti        1 MOL       0.0000
    195 Ti11       -12.7285     1.3533    22.2207 Ti        1 MOL       0.0000
    196 Ti12        -8.5983    -3.1664    21.8270 Ti        1 MOL       0.0000
    197 Ti13        -9.5623    -1.0065    20.2637 Ti        1 MOL       0.0000
    198 Ti14       -12.0496     0.3278    24.9849 Ti        1 MOL       0.0000
    199 Ti15        -0.0680     2.1178    21.7682 Ti        1 MOL       0.0000
    200 Ti16        -5.2975    -4.3625    22.4958 Ti        1 MOL       0.0000
    201 H57          2.1980    -9.2496    26.0778 H         1 MOL       0.0000
    202 H58         -0.4138    -6.3604    20.2671 H         1 MOL       0.0000
    203 H59         -4.4007     1.4823    21.3193 H         1 MOL       0.0000
    204 H60         -2.2112    -1.6048    24.3717 H         1 MOL       0.0000
    205 H61         -8.8702    -2.3588    23.0758 H         1 MOL       0.0000
    206 H62          4.0234    -2.6338    18.3613 H         1 MOL       0.0000
    207 H63         -7.5883    -1.1634    17.8239 H         1 MOL       0.0000
    208 H64         -3.6187    -2.8503    18.7372 H         1 MOL       0.0000
    209 H65         -9.3297     2.8488    19.4023 H         1 MOL       0.0000
    210 H66        -12.1242    -3.9369    25.4983 H         1 MOL       0.0000
    211 H67          1.9005   -10.2406    21.1300 H         1 MOL       0.0000
    212 H68         -0.9454    -5.8507    24.1259 H         1 MOL       0.0000
    213 H69          5.4684    -9.2679    18.2250 H         1 MOL       0.0000
    214 H70          2.4756    -1.8164    22.0711 H         1 MOL       0.0000
    215 H71        -11.4634     0.8885    22.8586 H         1 MOL       0.0000
    216 H72          0.2516    -8.5273    20.3841 H         1 MOL       0.0000
    217 H73         -6.5584    -2.4493    21.3724 H         1 MOL       0.0000
    218 H74         -8.4850   -12.7002    23.9522 H         1 MOL       0.0000
    219 H75          1.2957    -4.4356    13.4101 H         1 MOL       0.0000
    220 H76          0.3384    -5.3535    13.1856 H         1 MOL       0.0000
    221 H77         -0.5738    -0.4794    14.8064 H         1 MOL       0.0000
    222 H78         -5.2099    -6.4733    26.1799 H         1 MOL       0.0000
    223 H79         -7.1554    -0.5310    23.5475 H         1 MOL       0.0000
    224 H80         -8.8111    -0.1016    23.9156 H         1 MOL       0.0000
    225 C63         -3.3677    -5.3958    24.2680 C         1 MOL       0.0000
    226 C64          4.3576   -10.7104    20.9149 C         1 MOL       0.0000
    227 C65        -10.1081     1.3887    22.0783 C         1 MOL       0.0000
    228 C66        -11.3823    -2.4330    22.8027 C         1 MOL       0.0000
    229 C67         -2.7821    -6.2792    25.4070 C         1 MOL       0.0000
    230 C68          3.7297    -9.8254    19.7864 C         1 MOL       0.0000
    231 C69         -8.7864     1.5461    21.2944 C         1 MOL       0.0000
    232 C70        -12.7094    -2.5888    23.6804 C         1 MOL       0.0000
    233 C71          1.1382     0.0591    13.6302 C         1 MOL       0.0000
    234 C72          4.4436    -9.1448    18.4481 C         1 MOL       0.0000
    235 C73         -7.7598     0.8642    21.9305 C         1 MOL       0.0000
    236 C74          2.2762    -2.4549    23.1660 C         1 MOL       0.0000
    237 C75        -12.9307    -3.4150    25.0752 C         1 MOL       0.0000
    238 C76         -8.5272     2.3599    19.8547 C         1 MOL       0.0000
    239 C77         -1.4539    -6.4162    25.1482 C         1 MOL       0.0000
    240 C78          2.4191    -9.7019    20.0817 C         1 MOL       0.0000
    241 C79          0.3008    -5.1520    18.1556 C         1 MOL       0.0000
    242 C80        -10.9555     2.8841    20.8323 C         1 MOL       0.0000
    243 C81         -1.4648    -0.5128    22.1366 C         1 MOL       0.0000
    244 C82          4.9032    -1.4186    16.3257 C         1 MOL       0.0000
    245 C83         -7.4244    -5.8820    22.9939 C         1 MOL       0.0000
    246 C84          2.4872     1.3246    19.0420 C         1 MOL       0.0000
    247 C85         -0.6461    -4.0716    18.7894 C         1 MOL       0.0000
    248 C86        -10.1486     1.8264    20.0348 C         1 MOL       0.0000
    249 C87         -1.9615    -1.1438    21.2302 C         1 MOL       0.0000
    250 C88          5.5630    -0.9650    17.2545 C         1 MOL       0.0000
    251 C89          0.2811    -6.3063    19.0701 C         1 MOL       0.0000
    252 C90          6.1597    -2.2352    14.1940 C         1 MOL       0.0000
    253 C91         -1.6462    -0.8970    23.8321 C         1 MOL       0.0000
    254 C92         -4.9909     0.7937    21.8647 C         1 MOL       0.0000
    255 C93          0.3647    -5.3242    15.5416 C         1 MOL       0.0000
    256 C94          4.1476    -2.3201    17.0748 C         1 MOL       0.0000
    257 C95         -8.8716    -3.2564    23.7819 C         1 MOL       0.0000
    258 C96         -5.3207   -11.8283    22.4980 C         1 MOL       0.0000
    259 N11        -11.8921     1.6800    23.4068 N         1 MOL       0.0000
    260 N12          0.5430    -4.8602    13.9249 N         1 MOL       0.0000
    261 N13         -0.1442     0.1329    13.9446 N         1 MOL       0.0000
    262 N14         -7.9251     0.0761    23.3322 N         1 MOL       0.0000
    263 O41         -4.5089    -5.4234    24.2495 O         1 MOL       0.0000
    264 O42          5.5698   -11.1177    20.4263 O         1 MOL       0.0000
    265 O43        -10.3741     0.8685    23.5498 O         1 MOL       0.0000
    266 O44        -11.2482    -1.4761    21.7858 O         1 MOL       0.0000
    267 O45        -10.4487    -3.2663    23.0955 O         1 MOL       0.0000
    268 O46        -10.9452     1.7487    21.2742 O         1 MOL       0.0000
    269 O47         -2.7094    -4.6383    23.3030 O         1 MOL       0.0000
    270 O48          3.6372   -11.0347    22.3094 O         1 MOL       0.0000
    271 O49         -3.9415    -4.5931    20.8480 O         1 MOL       0.0000
    272 O50          5.6114   -11.6710    23.6209 O         1 MOL       0.0000
    273 O51         -4.8536    -3.0258    22.9038 O         1 MOL       0.0000
    274 O52         -1.1999     1.1955    22.3248 O         1 MOL       0.0000
    275 O53        -12.3162    -0.1671    23.0249 O         1 MOL       0.0000
    276 O54         -8.9245    -1.5489    22.1241 O         1 MOL       0.0000
    277 O55         -6.3559   -12.7392    24.2195 O         1 MOL       0.0000
    278 O56         -8.8049    -2.7718    19.8829 O         1 MOL       0.0000
    279 O57         -6.3922    -5.6878    23.1584 O         1 MOL       0.0000
    280 O58          1.3049     1.8178    19.6078 O         1 MOL       0.0000
    281 O59        -10.7295    -1.2348    25.0803 O         1 MOL       0.0000
    282 O60        -10.1804     0.7065    20.7380 O         1 MOL       0.0000
    283 O61         -0.7128    -6.6125    13.8250 O         1 MOL       0.0000
    284 O62        -10.5248    -0.8804    18.6507 O         1 MOL       0.0000
    285 O63          3.2558     0.9905    19.9309 O         1 MOL       0.0000
    286 O64         -8.2791    -5.0151    22.5905 O         1 MOL       0.0000
    287 O65         -2.5492    -2.0447    21.9588 O         1 MOL       0.0000
    288 O66          2.6753   -12.9425    23.8048 O         1 MOL       0.0000
    289 O67         -1.4385    -4.2011    20.2204 O         1 MOL       0.0000
    290 O68          3.0649   -11.4031    25.9027 O         1 MOL       0.0000
    291 O69         -6.7273    -3.2857    21.6393 O         1 MOL       0.0000
    292 O70          1.3379     1.2750    22.8160 O         1 MOL       0.0000
    293 O71         -3.3367    -2.3457    19.3217 O         1 MOL       0.0000
    294 O72         -8.1060    -0.4619    18.4262 O         1 MOL       0.0000
    295 H81         -6.1439   -10.1053    24.3052 H         1 MOL       0.0000
    296 H82          4.9414     0.7671    17.2015 H         1 MOL       0.0000
    297 H83         -9.8539    -2.1906    26.1292 H         1 MOL       0.0000
    298 H84         -5.7778    -7.9302    23.6659 H         1 MOL       0.0000
    299 H85         -9.9433    -8.8256    23.8143 H         1 MOL       0.0000
    300 H86          1.0560     1.1507    17.1569 H         1 MOL       0.0000
    301 H87         -8.2081   -10.5345    24.3270 H         1 MOL       0.0000
    302 H88         -9.5901    -6.6430    23.2445 H         1 MOL       0.0000
    303 H89         -7.5273    -2.7215    24.7603 H         1 MOL       0.0000
    304 H90         -0.7025    -4.4095    18.4362 H         1 MOL       0.0000
    305 C97         -7.6553    -7.1614    23.3907 C         1 MOL       0.0000
    306 C98         -8.0622    -9.5855    24.0894 C         1 MOL       0.0000
    307 C99         -7.8615    -2.3905    25.9693 C         1 MOL       0.0000
    308 C100         2.9557     0.9957    17.3366 C         1 MOL       0.0000
    309 C101        -8.8417    -7.4076    23.4593 C         1 MOL       0.0000
    310 C102        -6.8921    -9.3438    24.0719 C         1 MOL       0.0000
    311 C103        -4.5391     4.9852    13.6353 C         1 MOL       0.0000
    312 C104         4.2720     0.6813    16.5701 C         1 MOL       0.0000
    313 C105        -2.3408     4.7960    13.6418 C         1 MOL       0.0000
    314 C106         2.0702     0.9056    16.5403 C         1 MOL       0.0000
    315 C107        -6.6886    -8.1347    23.7250 C         1 MOL       0.0000
    316 C108        -9.0367    -8.6211    23.7871 C         1 MOL       0.0000
    317 N15          2.6864   -10.0676    20.6946 N         1 MOL       0.0000
    318 N16          4.6725    -9.9772    19.3761 N         1 MOL       0.0000
    319 C109         2.6767    -9.0439    19.5692 C         1 MOL       0.0000
    320 C110         3.9134    -8.9924    18.7336 C         1 MOL       0.0000
    321 C111         6.4410    -9.0662    19.5400 C         1 MOL       0.0000
    322 C112         1.5987   -10.2574    22.1266 C         1 MOL       0.0000
    323 C113         3.9090   -10.6045    20.5876 C         1 MOL       0.0000
    324 C114         6.0619   -10.1367    19.0351 C         1 MOL       0.0000
    325 H91          1.8209    -8.3521    19.5887 H         1 MOL       0.0000
    326 H92          4.2926    -8.2898    17.8308 H         1 MOL       0.0000
    327 H93          6.1601    -8.1855    18.8484 H         1 MOL       0.0000
    328 H94          0.9775    -9.3555    22.3445 H         1 MOL       0.0000
    329 H95          6.0184    -8.9672    20.8534 H         1 MOL       0.0000
    330 H96          1.0989   -10.8920    21.8807 H         1 MOL       0.0000
    331 H97          7.4844    -9.2555    19.2521 H         1 MOL       0.0000
    332 H98         -0.0256     4.3870    17.6706 H         1 MOL       0.0000
    333 H99          1.9686   -10.6105    23.1775 H         1 MOL       0.0000
    334 H100         4.2153   -11.3867    21.3946 H         1 MOL       0.0000
    335 H101         6.3599   -11.0183    19.7036 H         1 MOL       0.0000
    336 N17          2.0207    -6.2680    21.7388 N         1 MOL       0.0000
    337 C115       -12.1031    -5.7610    24.8340 C         1 MOL       0.0000
    338 C116         2.7982    -2.4388    20.0587 C         1 MOL       0.0000
    339 O73          1.1927    -7.6402    25.2893 O         1 MOL       0.0000
    340 O74          4.7387    -8.5292    23.5396 O         1 MOL       0.0000
    341 O75          2.9961    -5.5634    18.4072 O         1 MOL       0.0000
    342 O76          4.6206    -4.3148    17.9303 O         1 MOL       0.0000
    343 F13          7.4778     0.6719    13.1714 F         1 MOL       0.0000
    344 F14          0.3745    -2.1582    23.3497 F         1 MOL       0.0000
    345 F15        -11.4654    -4.9782    25.2267 F         1 MOL       0.0000
    346 F16          6.2955    -1.4366    14.5040 F         1 MOL       0.0000
    347 F17          1.7075    -1.6470    20.5536 F         1 MOL       0.0000
    348 F18          3.0309    -2.3240    18.4152 F         1 MOL       0.0000
    349 S5           2.6017    -7.0884    22.9429 S         1 MOL       0.0000
    350 S6           3.7044    -4.9669    19.0912 S         1 MOL       0.0000
    351 N18         -4.5500    -7.3933    19.3324 N         1 MOL       0.0000
    352 N19         -6.5249    -7.4945    19.5936 N         1 MOL       0.0000
    353 C117        -3.3938    -6.8873    19.0780 C         1 MOL       0.0000
    354 C118        -5.6975    -6.7277    19.2395 C         1 MOL       0.0000
    355 C119        -4.6547    -8.6192    19.7538 C         1 MOL       0.0000
    356 C120        -2.2122    -7.5742    17.9042 C         1 MOL       0.0000
    357 C121        -5.8849    -8.6840    19.9098 C         1 MOL       0.0000
    358 C122        -7.8135    -7.1408    19.3932 C         1 MOL       0.0000
    359 H102        -3.2589    -6.9140    20.2838 H         1 MOL       0.0000
    360 H103        -3.6212    -5.9121    18.6270 H         1 MOL       0.0000
    361 H104        -5.9146    -5.7503    18.8556 H         1 MOL       0.0000
    362 H105        -1.3942    -7.1751    17.8473 H         1 MOL       0.0000
    363 H106        -3.8326    -9.3349    19.8266 H         1 MOL       0.0000
    364 H107        -8.4756    -7.5266    20.4643 H         1 MOL       0.0000
    365 H108        -8.0889    -6.1267    19.2761 H         1 MOL       0.0000
    366 H109        -1.9924    -8.5633    18.3037 H         1 MOL       0.0000
    367 H110        -6.3520    -9.4661    20.2048 H         1 MOL       0.0000
    368 H111        -2.2993    -7.4939    16.6594 H         1 MOL       0.0000
    369 H112         8.1976    -8.0661    18.3851 H         1 MOL       0.0000
    370 N20         -4.8718    -6.6571    13.3360 N         1 MOL       0.0000
    371 C123         2.3850     4.6525    16.1882 C         1 MOL       0.0000
    372 C124         5.5695   -12.3184    23.9649 C         1 MOL       0.0000
    373 O77         -6.2282    -4.4987    14.1293 O         1 MOL       0.0000
    374 O78        -10.3147     5.2374    16.4020 O         1 MOL       0.0000
    375 O79         -8.5504   -11.8309    25.4162 O         1 MOL       0.0000
    376 O80         -8.7099     6.2123    14.2058 O         1 MOL       0.0000
    377 F19          1.2901     4.0654    16.8222 F         1 MOL       0.0000
    378 F20          4.3643   -12.3648    24.1764 F         1 MOL       0.0000
    379 F21         -0.9359    -2.3610    25.4959 F         1 MOL       0.0000
    380 F22          3.3639     3.6551    15.5199 F         1 MOL       0.0000
    381 F23         -9.4029    -9.9831    23.6507 F         1 MOL       0.0000
    382 F24          0.9690     0.1150    23.0484 F         1 MOL       0.0000
    383 S7          -9.8124   -12.1948    25.9708 S         1 MOL       0.0000
    384 S8          -9.9851     5.8753    14.7392 S         1 MOL       0.0000
    385 Ti17         2.2305     9.3532    10.9543 Ti        1 MOL       0.0000
    386 Ti18        -5.0347    18.3079     8.3375 Ti        1 MOL       0.0000
    387 Ti19       -14.6105    23.0323     9.0687 Ti        1 MOL       0.0000
    388 Ti20       -10.4803    18.5126     8.6750 Ti        1 MOL       0.0000
    389 Ti21       -11.4443    20.6725     7.1117 Ti        1 MOL       0.0000
    390 Ti22       -13.9316    22.0068    11.8329 Ti        1 MOL       0.0000
    391 Ti23        -1.9500    23.7968     8.6162 Ti        1 MOL       0.0000
    392 Ti24        -7.1795    17.3165     9.3438 Ti        1 MOL       0.0000
    393 H113         0.3160    12.4294    12.9258 H         1 MOL       0.0000
    394 H114        -2.2958    15.3186     7.1151 H         1 MOL       0.0000
    395 H115        -6.2827    23.1613     8.1673 H         1 MOL       0.0000
    396 H116        -4.0932    20.0742    11.2197 H         1 MOL       0.0000
    397 H117       -10.7522    19.3202     9.9238 H         1 MOL       0.0000
    398 H118         2.1414    19.0452     5.2093 H         1 MOL       0.0000
    399 H119        -9.4703    20.5156     4.6719 H         1 MOL       0.0000
    400 H120        -5.5007    18.8287     5.5852 H         1 MOL       0.0000
    401 H121       -11.2117    24.5278     6.2503 H         1 MOL       0.0000
    402 H122       -14.0062    17.7421    12.3463 H         1 MOL       0.0000
    403 H123         0.0185    11.4384     7.9780 H         1 MOL       0.0000
    404 H124        -2.8274    15.8283    10.9739 H         1 MOL       0.0000
    405 H125         3.5864    12.4111     5.0730 H         1 MOL       0.0000
    406 H126         0.5936    19.8626     8.9191 H         1 MOL       0.0000
    407 H127       -13.3454    22.5675     9.7066 H         1 MOL       0.0000
    408 H128        -1.6304    13.1517     7.2321 H         1 MOL       0.0000
    409 H129        -8.4404    19.2297     8.2204 H         1 MOL       0.0000
    410 H130       -10.3670     8.9788    10.8002 H         1 MOL       0.0000
    411 H131        -0.5863    17.2434     0.2581 H         1 MOL       0.0000
    412 H132        -1.5436    16.3255     0.0336 H         1 MOL       0.0000
    413 H133        -2.4558    21.1996     1.6544 H         1 MOL       0.0000
    414 H134        -7.0919    15.2057    13.0279 H         1 MOL       0.0000
    415 H135        -9.0374    21.1480    10.3955 H         1 MOL       0.0000
    416 H136       -10.6931    21.5774    10.7636 H         1 MOL       0.0000
    417 C125        -5.2497    16.2832    11.1160 C         1 MOL       0.0000
    418 C126         2.4756    10.9686     7.7629 C         1 MOL       0.0000
    419 C127       -11.9901    23.0677     8.9263 C         1 MOL       0.0000
    420 C128       -13.2643    19.2460     9.6507 C         1 MOL       0.0000
    421 C129        -4.6641    15.3998    12.2550 C         1 MOL       0.0000
    422 C130         1.8477    11.8536     6.6344 C         1 MOL       0.0000
    423 C131       -10.6684    23.2251     8.1424 C         1 MOL       0.0000
    424 C132       -14.5914    19.0902    10.5284 C         1 MOL       0.0000
    425 C133        -0.7438    21.7381     0.4782 C         1 MOL       0.0000
    426 C134         2.5616    12.5342     5.2961 C         1 MOL       0.0000
    427 C135        -9.6418    22.5432     8.7785 C         1 MOL       0.0000
    428 C136         0.3942    19.2241    10.0140 C         1 MOL       0.0000
    429 C137       -14.8127    18.2640    11.9232 C         1 MOL       0.0000
    430 C138       -10.4092    24.0389     6.7027 C         1 MOL       0.0000
    431 C139        -3.3359    15.2628    11.9962 C         1 MOL       0.0000
    432 C140         0.5371    11.9771     6.9297 C         1 MOL       0.0000
    433 C141        -1.5812    16.5270     5.0036 C         1 MOL       0.0000
    434 C142       -12.8375    24.5631     7.6803 C         1 MOL       0.0000
    435 C143        -3.3468    21.1662     8.9846 C         1 MOL       0.0000
    436 C144         3.0212    20.2604     3.1737 C         1 MOL       0.0000
    437 C145        -9.3064    15.7970     9.8419 C         1 MOL       0.0000
    438 C146         0.6052    23.0036     5.8900 C         1 MOL       0.0000
    439 C147        -2.5281    17.6074     5.6374 C         1 MOL       0.0000
    440 C148       -12.0306    23.5054     6.8828 C         1 MOL       0.0000
    441 C149        -3.8435    20.5352     8.0782 C         1 MOL       0.0000
    442 C150         3.6810    20.7140     4.1025 C         1 MOL       0.0000
    443 C151        -1.6009    15.3727     5.9181 C         1 MOL       0.0000
    444 C152         4.2777    19.4438     1.0420 C         1 MOL       0.0000
    445 C153        -3.5282    20.7820    10.6801 C         1 MOL       0.0000
    446 C154        -6.8729    22.4727     8.7127 C         1 MOL       0.0000
    447 C155        -1.5173    16.3548     2.3896 C         1 MOL       0.0000
    448 C156         2.2656    19.3589     3.9228 C         1 MOL       0.0000
    449 C157       -10.7536    18.4226    10.6299 C         1 MOL       0.0000
    450 C158        -7.2027     9.8507     9.3460 C         1 MOL       0.0000
    451 N21        -13.7741    23.3590    10.2548 N         1 MOL       0.0000
    452 N22         -1.3390    16.8188     0.7729 N         1 MOL       0.0000
    453 N23         -2.0262    21.8119     0.7926 N         1 MOL       0.0000
    454 N24         -9.8071    21.7551    10.1802 N         1 MOL       0.0000
    455 O81         -6.3909    16.2556    11.0975 O         1 MOL       0.0000
    456 O82          3.6878    10.5613     7.2743 O         1 MOL       0.0000
    457 O83        -12.2561    22.5475    10.3978 O         1 MOL       0.0000
    458 O84        -13.1302    20.2029     8.6338 O         1 MOL       0.0000
    459 O85        -12.3307    18.4127     9.9435 O         1 MOL       0.0000
    460 O86        -12.8272    23.4277     8.1222 O         1 MOL       0.0000
    461 O87         -4.5914    17.0407    10.1510 O         1 MOL       0.0000
    462 O88          1.7552    10.6443     9.1574 O         1 MOL       0.0000
    463 O89         -5.8235    17.0859     7.6960 O         1 MOL       0.0000
    464 O90          3.7294    10.0080    10.4689 O         1 MOL       0.0000
    465 O91         -6.7356    18.6532     9.7518 O         1 MOL       0.0000
    466 O92         -3.0819    22.8745     9.1728 O         1 MOL       0.0000
    467 O93        -14.1982    21.5119     9.8729 O         1 MOL       0.0000
    468 O94        -10.8065    20.1301     8.9721 O         1 MOL       0.0000
    469 O95         -8.2379     8.9398    11.0675 O         1 MOL       0.0000
    470 O96        -10.6869    18.9072     6.7309 O         1 MOL       0.0000
    471 O97         -8.2742    15.9912    10.0064 O         1 MOL       0.0000
    472 O98         -0.5771    23.4968     6.4558 O         1 MOL       0.0000
    473 O99        -12.6115    20.4442    11.9283 O         1 MOL       0.0000
    474 O100       -12.0624    22.3855     7.5860 O         1 MOL       0.0000
    475 O101        -2.5948    15.0665     0.6730 O         1 MOL       0.0000
    476 O102       -12.4068    20.7986     5.4987 O         1 MOL       0.0000
    477 O103         1.3738    22.6695     6.7789 O         1 MOL       0.0000
    478 O104       -10.1611    16.6639     9.4385 O         1 MOL       0.0000
    479 O105        -4.4312    19.6343     8.8068 O         1 MOL       0.0000
    480 O106         0.7933     8.7365    10.6528 O         1 MOL       0.0000
    481 O107        -3.3205    17.4779     7.0684 O         1 MOL       0.0000
    482 O108         1.1829    10.2759    12.7507 O         1 MOL       0.0000
    483 O109        -8.6093    18.3933     8.4873 O         1 MOL       0.0000
    484 O110        -0.5441    22.9540     9.6640 O         1 MOL       0.0000
    485 O111        -5.2187    19.3333     6.1697 O         1 MOL       0.0000
    486 O112        -9.9880    21.2171     5.2742 O         1 MOL       0.0000
    487 H137        -8.0259    11.5737    11.1532 H         1 MOL       0.0000
    488 H138         3.0594    22.4461     4.0495 H         1 MOL       0.0000
    489 H139       -11.7359    19.4884    12.9772 H         1 MOL       0.0000
    490 H140        -7.6598    13.7488    10.5139 H         1 MOL       0.0000
    491 H141       -11.8253    12.8534    10.6623 H         1 MOL       0.0000
    492 H142        -0.8260    22.8297     4.0049 H         1 MOL       0.0000
    493 H143       -10.0901    11.1445    11.1750 H         1 MOL       0.0000
    494 H144       -11.4721    15.0360    10.0925 H         1 MOL       0.0000
    495 H145        -9.4093    18.9575    11.6083 H         1 MOL       0.0000
    496 H146        -2.5845    17.2695     5.2842 H         1 MOL       0.0000
    497 C159        -9.5373    14.5176    10.2387 C         1 MOL       0.0000
    498 C160        -9.9442    12.0935    10.9374 C         1 MOL       0.0000
    499 C161        -9.7435    19.2885    12.8173 C         1 MOL       0.0000
    500 C162         1.0737    22.6747     4.1846 C         1 MOL       0.0000
    501 C163       -10.7237    14.2714    10.3073 C         1 MOL       0.0000
    502 C164        -8.7741    12.3352    10.9199 C         1 MOL       0.0000
    503 C165        -6.4211    26.6642     0.4833 C         1 MOL       0.0000
    504 C166         2.3900    22.3603     3.4181 C         1 MOL       0.0000
    505 C167        -4.2228    26.4750     0.4898 C         1 MOL       0.0000
    506 C168         0.1882    22.5846     3.3883 C         1 MOL       0.0000
    507 C169        -8.5706    13.5443    10.5730 C         1 MOL       0.0000
    508 C170       -10.9187    13.0579    10.6351 C         1 MOL       0.0000
    509 N25          0.8044    11.6114     7.5426 N         1 MOL       0.0000
    510 N26          2.7905    11.7018     6.2241 N         1 MOL       0.0000
    511 C171         0.7947    12.6351     6.4172 C         1 MOL       0.0000
    512 C172         2.0314    12.6866     5.5816 C         1 MOL       0.0000
    513 C173         4.5590    12.6128     6.3880 C         1 MOL       0.0000
    514 C174        -0.2833    11.4216     8.9746 C         1 MOL       0.0000
    515 C175         2.0270    11.0745     7.4356 C         1 MOL       0.0000
    516 C176         4.1799    11.5423     5.8831 C         1 MOL       0.0000
    517 H147        -0.0611    13.3269     6.4367 H         1 MOL       0.0000
    518 H148         2.4106    13.3892     4.6788 H         1 MOL       0.0000
    519 H149         4.2781    13.4935     5.6964 H         1 MOL       0.0000
    520 H150        -0.9045    12.3235     9.1925 H         1 MOL       0.0000
    521 H151         4.1364    12.7118     7.7014 H         1 MOL       0.0000
    522 H152        -0.7831    10.7870     8.7287 H         1 MOL       0.0000
    523 H153         5.6024    12.4235     6.1001 H         1 MOL       0.0000
    524 H154        -1.9076    26.0660     4.5186 H         1 MOL       0.0000
    525 H155         0.0866    11.0685    10.0255 H         1 MOL       0.0000
    526 H156         2.3333    10.2923     8.2426 H         1 MOL       0.0000
    527 H157         4.4779    10.6607     6.5516 H         1 MOL       0.0000
    528 N27          0.1387    15.4110     8.5868 N         1 MOL       0.0000
    529 C177       -13.9851    15.9180    11.6820 C         1 MOL       0.0000
    530 C178         0.9162    19.2402     6.9067 C         1 MOL       0.0000
    531 O113        -0.6893    14.0388    12.1373 O         1 MOL       0.0000
    532 O114         2.8567    13.1498    10.3876 O         1 MOL       0.0000
    533 O115         1.1141    16.1156     5.2552 O         1 MOL       0.0000
    534 O116         2.7386    17.3642     4.7783 O         1 MOL       0.0000
    535 F25          5.5958    22.3509     0.0194 F         1 MOL       0.0000
    536 F26         -1.5075    19.5208    10.1977 F         1 MOL       0.0000
    537 F27        -13.3474    16.7008    12.0747 F         1 MOL       0.0000
    538 F28          4.4135    20.2424     1.3520 F         1 MOL       0.0000
    539 F29         -0.1745    20.0320     7.4016 F         1 MOL       0.0000
    540 F30          1.1489    19.3550     5.2632 F         1 MOL       0.0000
    541 S9           0.7197    14.5906     9.7909 S         1 MOL       0.0000
    542 S10          1.8224    16.7121     5.9392 S         1 MOL       0.0000
    543 N28         -6.4320    14.2857     6.1804 N         1 MOL       0.0000
    544 N29         -8.4069    14.1845     6.4416 N         1 MOL       0.0000
    545 C179        -5.2758    14.7917     5.9260 C         1 MOL       0.0000
    546 C180        -7.5795    14.9513     6.0875 C         1 MOL       0.0000
    547 C181        -6.5367    13.0598     6.6018 C         1 MOL       0.0000
    548 C182        -4.0942    14.1048     4.7522 C         1 MOL       0.0000
    549 C183        -7.7669    12.9950     6.7578 C         1 MOL       0.0000
    550 C184        -9.6955    14.5382     6.2412 C         1 MOL       0.0000
    551 H158        -5.1409    14.7650     7.1318 H         1 MOL       0.0000
    552 H159        -5.5032    15.7669     5.4750 H         1 MOL       0.0000
    553 H160        -7.7966    15.9287     5.7036 H         1 MOL       0.0000
    554 H161        -3.2762    14.5039     4.6953 H         1 MOL       0.0000
    555 H162        -5.7146    12.3441     6.6746 H         1 MOL       0.0000
    556 H163       -10.3576    14.1524     7.3123 H         1 MOL       0.0000
    557 H164        -9.9709    15.5523     6.1241 H         1 MOL       0.0000
    558 H165        -3.8744    13.1157     5.1517 H         1 MOL       0.0000
    559 H166        -8.2340    12.2129     7.0528 H         1 MOL       0.0000
    560 H167        -4.1813    14.1851     3.5074 H         1 MOL       0.0000
    561 H168         6.3156    13.6129     5.2331 H         1 MOL       0.0000
    562 N30         -6.7538    15.0219     0.1840 N         1 MOL       0.0000
    563 C185         0.5030    26.3315     3.0362 C         1 MOL       0.0000
    564 C186         3.6875     9.3606    10.8129 C         1 MOL       0.0000
    565 O117        -8.1102    17.1803     0.9773 O         1 MOL       0.0000
    566 O118       -12.1967    26.9164     3.2500 O         1 MOL       0.0000
    567 O119       -10.4324     9.8481    12.2642 O         1 MOL       0.0000
    568 O120       -10.5919    27.8913     1.0538 O         1 MOL       0.0000
    569 F31         -0.5919    25.7444     3.6702 F         1 MOL       0.0000
    570 F32          2.4823     9.3142    11.0244 F         1 MOL       0.0000
    571 F33         -2.8179    19.3180    12.3439 F         1 MOL       0.0000
    572 F34          1.4819    25.3341     2.3679 F         1 MOL       0.0000
    573 F35        -11.2849    11.6959    10.4987 F         1 MOL       0.0000
    574 F36         -0.9130    21.7940     9.8964 F         1 MOL       0.0000
    575 S11        -11.6944     9.4842    12.8188 S         1 MOL       0.0000
    576 S12        -11.8671    27.5543     1.5872 S         1 MOL       0.0000
    577 Ti25        -2.4045     2.2872    24.0493 Ti        1 MOL       0.0000
    578 Ti26        -9.6697    11.2419    21.4325 Ti        1 MOL       0.0000
    579 Ti27       -19.2455    15.9663    22.1637 Ti        1 MOL       0.0000
    580 Ti28       -15.1153    11.4466    21.7700 Ti        1 MOL       0.0000
    581 Ti29       -16.0793    13.6065    20.2067 Ti        1 MOL       0.0000
    582 Ti30       -18.5666    14.9408    24.9279 Ti        1 MOL       0.0000
    583 Ti31        -6.5850    16.7308    21.7112 Ti        1 MOL       0.0000
    584 Ti32       -11.8145    10.2505    22.4388 Ti        1 MOL       0.0000
    585 H169        -4.3190     5.3634    26.0208 H         1 MOL       0.0000
    586 H170        -6.9308     8.2526    20.2101 H         1 MOL       0.0000
    587 H171       -10.9177    16.0953    21.2623 H         1 MOL       0.0000
    588 H172        -8.7282    13.0082    24.3147 H         1 MOL       0.0000
    589 H173       -15.3872    12.2542    23.0188 H         1 MOL       0.0000
    590 H174        -2.4936    11.9792    18.3043 H         1 MOL       0.0000
    591 H175       -14.1053    13.4496    17.7669 H         1 MOL       0.0000
    592 H176       -10.1357    11.7627    18.6802 H         1 MOL       0.0000
    593 H177       -15.8467    17.4618    19.3453 H         1 MOL       0.0000
    594 H178       -18.6412    10.6761    25.4413 H         1 MOL       0.0000
    595 H179        -4.6165     4.3724    21.0730 H         1 MOL       0.0000
    596 H180        -7.4624     8.7623    24.0689 H         1 MOL       0.0000
    597 H181        -1.0486     5.3451    18.1680 H         1 MOL       0.0000
    598 H182        -4.0414    12.7966    22.0141 H         1 MOL       0.0000
    599 H183       -17.9804    15.5015    22.8016 H         1 MOL       0.0000
    600 H184        -6.2654     6.0857    20.3271 H         1 MOL       0.0000
    601 H185       -13.0754    12.1637    21.3154 H         1 MOL       0.0000
    602 H186       -15.0020     1.9128    23.8952 H         1 MOL       0.0000
    603 H187        -5.2213    10.1774    13.3531 H         1 MOL       0.0000
    604 H188        -6.1786     9.2595    13.1286 H         1 MOL       0.0000
    605 H189        -7.0908    14.1336    14.7494 H         1 MOL       0.0000
    606 H190       -11.7269     8.1397    26.1229 H         1 MOL       0.0000
    607 H191       -13.6724    14.0820    23.4905 H         1 MOL       0.0000
    608 H192       -15.3281    14.5114    23.8586 H         1 MOL       0.0000
    609 C187        -9.8847     9.2172    24.2110 C         1 MOL       0.0000
    610 C188        -2.1594     3.9026    20.8579 C         1 MOL       0.0000
    611 C189       -16.6251    16.0017    22.0213 C         1 MOL       0.0000
    612 C190       -17.8993    12.1800    22.7457 C         1 MOL       0.0000
    613 C191        -9.2991     8.3338    25.3500 C         1 MOL       0.0000
    614 C192        -2.7873     4.7876    19.7294 C         1 MOL       0.0000
    615 C193       -15.3034    16.1591    21.2374 C         1 MOL       0.0000
    616 C194       -19.2264    12.0242    23.6234 C         1 MOL       0.0000
    617 C195        -5.3788    14.6721    13.5732 C         1 MOL       0.0000
    618 C196        -2.0734     5.4682    18.3911 C         1 MOL       0.0000
    619 C197       -14.2768    15.4772    21.8735 C         1 MOL       0.0000
    620 C198        -4.2408    12.1581    23.1090 C         1 MOL       0.0000
    621 C199       -19.4477    11.1980    25.0182 C         1 MOL       0.0000
    622 C200       -15.0442    16.9729    19.7977 C         1 MOL       0.0000
    623 C201        -7.9709     8.1968    25.0912 C         1 MOL       0.0000
    624 C202        -4.0979     4.9111    20.0247 C         1 MOL       0.0000
    625 C203        -6.2162     9.4610    18.0986 C         1 MOL       0.0000
    626 C204       -17.4725    17.4971    20.7753 C         1 MOL       0.0000
    627 C205        -7.9818    14.1002    22.0796 C         1 MOL       0.0000
    628 C206        -1.6138    13.1944    16.2687 C         1 MOL       0.0000
    629 C207       -13.9414     8.7310    22.9369 C         1 MOL       0.0000
    630 C208        -4.0298    15.9376    18.9850 C         1 MOL       0.0000
    631 C209        -7.1631    10.5414    18.7324 C         1 MOL       0.0000
    632 C210       -16.6656    16.4394    19.9778 C         1 MOL       0.0000
    633 C211        -8.4785    13.4692    21.1732 C         1 MOL       0.0000
    634 C212        -0.9540    13.6480    17.1975 C         1 MOL       0.0000
    635 C213        -6.2359     8.3067    19.0131 C         1 MOL       0.0000
    636 C214        -0.3573    12.3778    14.1370 C         1 MOL       0.0000
    637 C215        -8.1632    13.7160    23.7751 C         1 MOL       0.0000
    638 C216       -11.5079    15.4067    21.8077 C         1 MOL       0.0000
    639 C217        -6.1523     9.2888    15.4846 C         1 MOL       0.0000
    640 C218        -2.3694    12.2929    17.0178 C         1 MOL       0.0000
    641 C219       -15.3886    11.3566    23.7249 C         1 MOL       0.0000
    642 C220       -11.8377     2.7847    22.4410 C         1 MOL       0.0000
    643 N31        -18.4091    16.2930    23.3498 N         1 MOL       0.0000
    644 N32         -5.9740     9.7528    13.8679 N         1 MOL       0.0000
    645 N33         -6.6612    14.7459    13.8876 N         1 MOL       0.0000
    646 N34        -14.4421    14.6891    23.2752 N         1 MOL       0.0000
    647 O121       -11.0259     9.1896    24.1925 O         1 MOL       0.0000
    648 O122        -0.9472     3.4953    20.3693 O         1 MOL       0.0000
    649 O123       -16.8911    15.4815    23.4928 O         1 MOL       0.0000
    650 O124       -17.7652    13.1369    21.7288 O         1 MOL       0.0000
    651 O125       -16.9657    11.3467    23.0385 O         1 MOL       0.0000
    652 O126       -17.4622    16.3617    21.2172 O         1 MOL       0.0000
    653 O127        -9.2264     9.9747    23.2460 O         1 MOL       0.0000
    654 O128        -2.8798     3.5783    22.2524 O         1 MOL       0.0000
    655 O129       -10.4585    10.0199    20.7910 O         1 MOL       0.0000
    656 O130        -0.9056     2.9420    23.5639 O         1 MOL       0.0000
    657 O131       -11.3706    11.5872    22.8468 O         1 MOL       0.0000
    658 O132        -7.7169    15.8085    22.2678 O         1 MOL       0.0000
    659 O133       -18.8332    14.4459    22.9679 O         1 MOL       0.0000
    660 O134       -15.4415    13.0641    22.0671 O         1 MOL       0.0000
    661 O135       -12.8729     1.8738    24.1625 O         1 MOL       0.0000
    662 O136       -15.3219    11.8412    19.8259 O         1 MOL       0.0000
    663 O137       -12.9092     8.9252    23.1014 O         1 MOL       0.0000
    664 O138        -5.2121    16.4308    19.5508 O         1 MOL       0.0000
    665 O139       -17.2465    13.3782    25.0233 O         1 MOL       0.0000
    666 O140       -16.6974    15.3195    20.6810 O         1 MOL       0.0000
    667 O141        -7.2298     8.0005    13.7680 O         1 MOL       0.0000
    668 O142       -17.0418    13.7326    18.5937 O         1 MOL       0.0000
    669 O143        -3.2612    15.6035    19.8739 O         1 MOL       0.0000
    670 O144       -14.7961     9.5979    22.5335 O         1 MOL       0.0000
    671 O145        -9.0662    12.5683    21.9018 O         1 MOL       0.0000
    672 O146        -3.8417     1.6705    23.7478 O         1 MOL       0.0000
    673 O147        -7.9555    10.4119    20.1634 O         1 MOL       0.0000
    674 O148        -3.4521     3.2099    25.8457 O         1 MOL       0.0000
    675 O149       -13.2443    11.3273    21.5823 O         1 MOL       0.0000
    676 O150        -5.1791    15.8880    22.7590 O         1 MOL       0.0000
    677 O151        -9.8537    12.2673    19.2647 O         1 MOL       0.0000
    678 O152       -14.6230    14.1511    18.3692 O         1 MOL       0.0000
    679 H193       -12.6609     4.5077    24.2482 H         1 MOL       0.0000
    680 H194        -1.5756    15.3801    17.1445 H         1 MOL       0.0000
    681 H195       -16.3709    12.4224    26.0722 H         1 MOL       0.0000
    682 H196       -12.2948     6.6828    23.6089 H         1 MOL       0.0000
    683 H197       -16.4603     5.7874    23.7573 H         1 MOL       0.0000
    684 H198        -5.4610    15.7637    17.0999 H         1 MOL       0.0000
    685 H199       -14.7251     4.0785    24.2700 H         1 MOL       0.0000
    686 H200       -16.1071     7.9700    23.1875 H         1 MOL       0.0000
    687 H201       -14.0443    11.8915    24.7033 H         1 MOL       0.0000
    688 H202        -7.2195    10.2035    18.3792 H         1 MOL       0.0000
    689 C221       -14.1723     7.4516    23.3337 C         1 MOL       0.0000
    690 C222       -14.5792     5.0275    24.0324 C         1 MOL       0.0000
    691 C223       -14.3785    12.2225    25.9123 C         1 MOL       0.0000
    692 C224        -3.5613    15.6087    17.2796 C         1 MOL       0.0000
    693 C225       -15.3587     7.2054    23.4023 C         1 MOL       0.0000
    694 C226       -13.4091     5.2692    24.0149 C         1 MOL       0.0000
    695 C227       -11.0561    19.5982    13.5783 C         1 MOL       0.0000
    696 C228        -2.2450    15.2943    16.5131 C         1 MOL       0.0000
    697 C229        -8.8578    19.4090    13.5848 C         1 MOL       0.0000
    698 C230        -4.4468    15.5186    16.4833 C         1 MOL       0.0000
    699 C231       -13.2056     6.4783    23.6680 C         1 MOL       0.0000
    700 C232       -15.5537     5.9919    23.7301 C         1 MOL       0.0000
    701 N35         -3.8306     4.5454    20.6376 N         1 MOL       0.0000
    702 N36         -1.8445     4.6358    19.3191 N         1 MOL       0.0000
    703 C233        -3.8403     5.5691    19.5122 C         1 MOL       0.0000
    704 C234        -2.6036     5.6206    18.6766 C         1 MOL       0.0000
    705 C235        -0.0760     5.5468    19.4830 C         1 MOL       0.0000
    706 C236        -4.9183     4.3556    22.0696 C         1 MOL       0.0000
    707 C237        -2.6080     4.0085    20.5306 C         1 MOL       0.0000
    708 C238        -0.4551     4.4763    18.9781 C         1 MOL       0.0000
    709 H203        -4.6961     6.2609    19.5317 H         1 MOL       0.0000
    710 H204        -2.2244     6.3232    17.7738 H         1 MOL       0.0000
    711 H205        -0.3569     6.4275    18.7914 H         1 MOL       0.0000
    712 H206        -5.5395     5.2575    22.2875 H         1 MOL       0.0000
    713 H207        -0.4986     5.6458    20.7964 H         1 MOL       0.0000
    714 H208        -5.4181     3.7210    21.8237 H         1 MOL       0.0000
    715 H209         0.9674     5.3575    19.1951 H         1 MOL       0.0000
    716 H210        -6.5426    19.0000    17.6136 H         1 MOL       0.0000
    717 H211        -4.5484     4.0025    23.1205 H         1 MOL       0.0000
    718 H212        -2.3017     3.2263    21.3376 H         1 MOL       0.0000
    719 H213        -0.1571     3.5947    19.6466 H         1 MOL       0.0000
    720 N37         -4.4963     8.3450    21.6818 N         1 MOL       0.0000
    721 C239       -18.6201     8.8520    24.7770 C         1 MOL       0.0000
    722 C240        -3.7188    12.1742    20.0017 C         1 MOL       0.0000
    723 O153        -5.3243     6.9728    25.2323 O         1 MOL       0.0000
    724 O154        -1.7783     6.0838    23.4826 O         1 MOL       0.0000
    725 O155        -3.5209     9.0496    18.3502 O         1 MOL       0.0000
    726 O156        -1.8964    10.2982    17.8733 O         1 MOL       0.0000
    727 F37          0.9608    15.2849    13.1144 F         1 MOL       0.0000
    728 F38         -6.1425    12.4548    23.2927 F         1 MOL       0.0000
    729 F39        -17.9824     9.6348    25.1697 F         1 MOL       0.0000
    730 F40         -0.2215    13.1764    14.4470 F         1 MOL       0.0000
    731 F41         -4.8095    12.9660    20.4966 F         1 MOL       0.0000
    732 F42         -3.4861    12.2890    18.3582 F         1 MOL       0.0000
    733 S13         -3.9153     7.5246    22.8859 S         1 MOL       0.0000
    734 S14         -2.8126     9.6461    19.0342 S         1 MOL       0.0000
    735 N38        -11.0670     7.2197    19.2754 N         1 MOL       0.0000
    736 N39        -13.0419     7.1185    19.5366 N         1 MOL       0.0000
    737 C241        -9.9108     7.7257    19.0210 C         1 MOL       0.0000
    738 C242       -12.2145     7.8853    19.1825 C         1 MOL       0.0000
    739 C243       -11.1717     5.9938    19.6968 C         1 MOL       0.0000
    740 C244        -8.7292     7.0388    17.8472 C         1 MOL       0.0000
    741 C245       -12.4019     5.9290    19.8528 C         1 MOL       0.0000
    742 C246       -14.3305     7.4722    19.3362 C         1 MOL       0.0000
    743 H214        -9.7759     7.6990    20.2268 H         1 MOL       0.0000
    744 H215       -10.1382     8.7009    18.5700 H         1 MOL       0.0000
    745 H216       -12.4316     8.8627    18.7986 H         1 MOL       0.0000
    746 H217        -7.9112     7.4379    17.7903 H         1 MOL       0.0000
    747 H218       -10.3496     5.2781    19.7696 H         1 MOL       0.0000
    748 H219       -14.9926     7.0864    20.4073 H         1 MOL       0.0000
    749 H220       -14.6059     8.4863    19.2191 H         1 MOL       0.0000
    750 H221        -8.5094     6.0497    18.2467 H         1 MOL       0.0000
    751 H222       -12.8690     5.1469    20.1478 H         1 MOL       0.0000
    752 H223        -8.8163     7.1191    16.6024 H         1 MOL       0.0000
    753 H224         1.6806     6.5469    18.3281 H         1 MOL       0.0000
    754 N40        -11.3888     7.9559    13.2790 N         1 MOL       0.0000
    755 C247        -4.1320    19.2655    16.1312 C         1 MOL       0.0000
    756 C248        -0.9475     2.2946    23.9079 C         1 MOL       0.0000
    757 O157       -12.7452    10.1143    14.0723 O         1 MOL       0.0000
    758 O158       -16.8317    19.8504    16.3450 O         1 MOL       0.0000
    759 O159       -15.0674     2.7821    25.3592 O         1 MOL       0.0000
    760 O160       -15.2269    20.8253    14.1488 O         1 MOL       0.0000
    761 F43         -5.2269    18.6784    16.7652 F         1 MOL       0.0000
    762 F44         -2.1527     2.2482    24.1194 F         1 MOL       0.0000
    763 F45         -7.4529    12.2520    25.4389 F         1 MOL       0.0000
    764 F46         -3.1531    18.2681    15.4629 F         1 MOL       0.0000
    765 F47        -15.9199     4.6299    23.5937 F         1 MOL       0.0000
    766 F48         -5.5480    14.7280    22.9914 F         1 MOL       0.0000
    767 S15        -16.3294     2.4182    25.9138 S         1 MOL       0.0000
    768 S16        -16.5021    20.4883    14.6822 S         1 MOL       0.0000
    769 Ti33        24.7475    -5.8168    11.1013 Ti        1 MOL       0.0000
    770 Ti34        17.4823     3.1379     8.4845 Ti        1 MOL       0.0000
    771 Ti35         7.9065     7.8623     9.2157 Ti        1 MOL       0.0000
    772 Ti36        12.0367     3.3426     8.8220 Ti        1 MOL       0.0000
    773 Ti37        11.0727     5.5025     7.2587 Ti        1 MOL       0.0000
    774 Ti38         8.5854     6.8368    11.9799 Ti        1 MOL       0.0000
    775 Ti39        20.5670     8.6268     8.7632 Ti        1 MOL       0.0000
    776 Ti40        15.3375     2.1465     9.4908 Ti        1 MOL       0.0000
    777 H225        22.8330    -2.7406    13.0728 H         1 MOL       0.0000
    778 H226        20.2212     0.1486     7.2621 H         1 MOL       0.0000
    779 H227        16.2343     7.9913     8.3143 H         1 MOL       0.0000
    780 H228        18.4238     4.9042    11.3667 H         1 MOL       0.0000
    781 H229        11.7648     4.1502    10.0708 H         1 MOL       0.0000
    782 H230        24.6584     3.8752     5.3563 H         1 MOL       0.0000
    783 H231        13.0467     5.3456     4.8189 H         1 MOL       0.0000
    784 H232        17.0163     3.6587     5.7322 H         1 MOL       0.0000
    785 H233        11.3053     9.3578     6.3973 H         1 MOL       0.0000
    786 H234         8.5108     2.5721    12.4933 H         1 MOL       0.0000
    787 H235        22.5355    -3.7316     8.1250 H         1 MOL       0.0000
    788 H236        19.6896     0.6583    11.1209 H         1 MOL       0.0000
    789 H237        26.1034    -2.7589     5.2200 H         1 MOL       0.0000
    790 H238        23.1106     4.6926     9.0661 H         1 MOL       0.0000
    791 H239         9.1716     7.3975     9.8536 H         1 MOL       0.0000
    792 H240        20.8866    -2.0183     7.3791 H         1 MOL       0.0000
    793 H241        14.0766     4.0597     8.3674 H         1 MOL       0.0000
    794 H242        12.1500    -6.1912    10.9472 H         1 MOL       0.0000
    795 H243        21.9307     2.0734     0.4051 H         1 MOL       0.0000
    796 H244        20.9734     1.1555     0.1806 H         1 MOL       0.0000
    797 H245        20.0612     6.0296     1.8014 H         1 MOL       0.0000
    798 H246        15.4251     0.0357    13.1749 H         1 MOL       0.0000
    799 H247        13.4796     5.9780    10.5425 H         1 MOL       0.0000
    800 H248        11.8239     6.4074    10.9106 H         1 MOL       0.0000
    801 C249        17.2673     1.1132    11.2630 C         1 MOL       0.0000
    802 C250        24.9926    -4.2014     7.9099 C         1 MOL       0.0000
    803 C251        10.5269     7.8977     9.0733 C         1 MOL       0.0000
    804 C252         9.2527     4.0760     9.7977 C         1 MOL       0.0000
    805 C253        17.8529     0.2298    12.4020 C         1 MOL       0.0000
    806 C254        24.3647    -3.3164     6.7814 C         1 MOL       0.0000
    807 C255        11.8486     8.0551     8.2894 C         1 MOL       0.0000
    808 C256         7.9256     3.9202    10.6754 C         1 MOL       0.0000
    809 C257        21.7732     6.5681     0.6252 C         1 MOL       0.0000
    810 C258        25.0786    -2.6358     5.4431 C         1 MOL       0.0000
    811 C259        12.8752     7.3732     8.9255 C         1 MOL       0.0000
    812 C260        22.9112     4.0541    10.1610 C         1 MOL       0.0000
    813 C261         7.7043     3.0940    12.0702 C         1 MOL       0.0000
    814 C262        12.1078     8.8689     6.8497 C         1 MOL       0.0000
    815 C263        19.1811     0.0928    12.1432 C         1 MOL       0.0000
    816 C264        23.0541    -3.1929     7.0767 C         1 MOL       0.0000
    817 C265        20.9358     1.3570     5.1506 C         1 MOL       0.0000
    818 C266         9.6795     9.3931     7.8273 C         1 MOL       0.0000
    819 C267        19.1702     5.9962     9.1316 C         1 MOL       0.0000
    820 C268        25.5382     5.0904     3.3207 C         1 MOL       0.0000
    821 C269        13.2106     0.6270     9.9889 C         1 MOL       0.0000
    822 C270        23.1222     7.8336     6.0370 C         1 MOL       0.0000
    823 C271        19.9889     2.4374     5.7844 C         1 MOL       0.0000
    824 C272        10.4864     8.3354     7.0298 C         1 MOL       0.0000
    825 C273        18.6735     5.3652     8.2252 C         1 MOL       0.0000
    826 C274        26.1980     5.5440     4.2495 C         1 MOL       0.0000
    827 C275        20.9161     0.2027     6.0651 C         1 MOL       0.0000
    828 C276        26.7947     4.2738     1.1890 C         1 MOL       0.0000
    829 C277        18.9888     5.6120    10.8271 C         1 MOL       0.0000
    830 C278        15.6441     7.3027     8.8597 C         1 MOL       0.0000
    831 C279        20.9997     1.1848     2.5366 C         1 MOL       0.0000
    832 C280        24.7826     4.1889     4.0698 C         1 MOL       0.0000
    833 C281        11.7634     3.2526    10.7769 C         1 MOL       0.0000
    834 C282        15.3143    -5.3193     9.4930 C         1 MOL       0.0000
    835 N41          8.7429     8.1890    10.4018 N         1 MOL       0.0000
    836 N42         21.1780     1.6488     0.9199 N         1 MOL       0.0000
    837 N43         20.4908     6.6419     0.9396 N         1 MOL       0.0000
    838 N44         12.7099     6.5851    10.3272 N         1 MOL       0.0000
    839 O161        16.1261     1.0856    11.2445 O         1 MOL       0.0000
    840 O162        26.2048    -4.6087     7.4213 O         1 MOL       0.0000
    841 O163        10.2609     7.3775    10.5448 O         1 MOL       0.0000
    842 O164         9.3868     5.0329     8.7808 O         1 MOL       0.0000
    843 O165        10.1863     3.2427    10.0905 O         1 MOL       0.0000
    844 O166         9.6898     8.2577     8.2692 O         1 MOL       0.0000
    845 O167        17.9256     1.8707    10.2980 O         1 MOL       0.0000
    846 O168        24.2722    -4.5257     9.3044 O         1 MOL       0.0000
    847 O169        16.6935     1.9159     7.8430 O         1 MOL       0.0000
    848 O170        26.2464    -5.1620    10.6159 O         1 MOL       0.0000
    849 O171        15.7814     3.4832     9.8988 O         1 MOL       0.0000
    850 O172        19.4351     7.7045     9.3198 O         1 MOL       0.0000
    851 O173         8.3188     6.3419    10.0199 O         1 MOL       0.0000
    852 O174        11.7105     4.9601     9.1191 O         1 MOL       0.0000
    853 O175        14.2791    -6.2302    11.2145 O         1 MOL       0.0000
    854 O176        11.8301     3.7372     6.8779 O         1 MOL       0.0000
    855 O177        14.2428     0.8212    10.1534 O         1 MOL       0.0000
    856 O178        21.9399     8.3268     6.6028 O         1 MOL       0.0000
    857 O179         9.9055     5.2742    12.0753 O         1 MOL       0.0000
    858 O180        10.4546     7.2155     7.7330 O         1 MOL       0.0000
    859 O181        19.9222    -0.1035     0.8200 O         1 MOL       0.0000
    860 O182        10.1102     5.6286     5.6457 O         1 MOL       0.0000
    861 O183        23.8908     7.4995     6.9259 O         1 MOL       0.0000
    862 O184        12.3559     1.4939     9.5855 O         1 MOL       0.0000
    863 O185        18.0858     4.4643     8.9538 O         1 MOL       0.0000
    864 O186        23.3103    -6.4335    10.7998 O         1 MOL       0.0000
    865 O187        19.1965     2.3079     7.2154 O         1 MOL       0.0000
    866 O188        23.6999    -4.8941    12.8977 O         1 MOL       0.0000
    867 O189        13.9077     3.2233     8.6343 O         1 MOL       0.0000
    868 O190        21.9729     7.7840     9.8110 O         1 MOL       0.0000
    869 O191        17.2983     4.1633     6.3167 O         1 MOL       0.0000
    870 O192        12.5290     6.0471     5.4212 O         1 MOL       0.0000
    871 H249        14.4911    -3.5963    11.3002 H         1 MOL       0.0000
    872 H250        25.5764     7.2761     4.1965 H         1 MOL       0.0000
    873 H251        10.7811     4.3184    13.1242 H         1 MOL       0.0000
    874 H252        14.8572    -1.4212    10.6609 H         1 MOL       0.0000
    875 H253        10.6917    -2.3166    10.8093 H         1 MOL       0.0000
    876 H254        21.6910     7.6597     4.1519 H         1 MOL       0.0000
    877 H255        12.4269    -4.0255    11.3220 H         1 MOL       0.0000
    878 H256        11.0449    -0.1340    10.2395 H         1 MOL       0.0000
    879 H257        13.1077     3.7875    11.7553 H         1 MOL       0.0000
    880 H258        19.9325     2.0995     5.4312 H         1 MOL       0.0000
    881 C283        12.9797    -0.6524    10.3857 C         1 MOL       0.0000
    882 C284        12.5728    -3.0765    11.0844 C         1 MOL       0.0000
    883 C285        12.7735     4.1185    12.9643 C         1 MOL       0.0000
    884 C286        23.5907     7.5047     4.3316 C         1 MOL       0.0000
    885 C287        11.7933    -0.8986    10.4543 C         1 MOL       0.0000
    886 C288        13.7429    -2.8348    11.0669 C         1 MOL       0.0000
    887 C289        16.0959    11.4942     0.6303 C         1 MOL       0.0000
    888 C290        24.9070     7.1903     3.5651 C         1 MOL       0.0000
    889 C291        18.2942    11.3050     0.6368 C         1 MOL       0.0000
    890 C292        22.7052     7.4146     3.5353 C         1 MOL       0.0000
    891 C293        13.9464    -1.6257    10.7200 C         1 MOL       0.0000
    892 C294        11.5983    -2.1121    10.7821 C         1 MOL       0.0000
    893 N45         23.3214    -3.5586     7.6896 N         1 MOL       0.0000
    894 N46         25.3075    -3.4682     6.3711 N         1 MOL       0.0000
    895 C295        23.3117    -2.5349     6.5642 C         1 MOL       0.0000
    896 C296        24.5484    -2.4834     5.7286 C         1 MOL       0.0000
    897 C297        27.0760    -2.5572     6.5350 C         1 MOL       0.0000
    898 C298        22.2337    -3.7484     9.1216 C         1 MOL       0.0000
    899 C299        24.5440    -4.0955     7.5826 C         1 MOL       0.0000
    900 C300        26.6969    -3.6277     6.0301 C         1 MOL       0.0000
    901 H259        22.4559    -1.8431     6.5837 H         1 MOL       0.0000
    902 H260        24.9276    -1.7808     4.8258 H         1 MOL       0.0000
    903 H261        26.7951    -1.6765     5.8434 H         1 MOL       0.0000
    904 H262        21.6125    -2.8465     9.3395 H         1 MOL       0.0000
    905 H263        26.6534    -2.4582     7.8484 H         1 MOL       0.0000
    906 H264        21.7339    -4.3830     8.8757 H         1 MOL       0.0000
    907 H265        28.1194    -2.7465     6.2471 H         1 MOL       0.0000
    908 H266        20.6094    10.8960     4.6656 H         1 MOL       0.0000
    909 H267        22.6036    -4.1015    10.1725 H         1 MOL       0.0000
    910 H268        24.8503    -4.8777     8.3896 H         1 MOL       0.0000
    911 H269        26.9949    -4.5093     6.6986 H         1 MOL       0.0000
    912 N47         22.6557     0.2410     8.7338 N         1 MOL       0.0000
    913 C301         8.5319     0.7480    11.8290 C         1 MOL       0.0000
    914 C302        23.4332     4.0702     7.0537 C         1 MOL       0.0000
    915 O193        21.8277    -1.1312    12.2843 O         1 MOL       0.0000
    916 O194        25.3737    -2.0202    10.5346 O         1 MOL       0.0000
    917 O195        23.6311     0.9456     5.4022 O         1 MOL       0.0000
    918 O196        25.2556     2.1942     4.9253 O         1 MOL       0.0000
    919 F49         28.1128     7.1809     0.1664 F         1 MOL       0.0000
    920 F50         21.0095     4.3508    10.3447 F         1 MOL       0.0000
    921 F51          9.1696     1.5308    12.2217 F         1 MOL       0.0000
    922 F52         26.9305     5.0724     1.4990 F         1 MOL       0.0000
    923 F53         22.3425     4.8620     7.5486 F         1 MOL       0.0000
    924 F54         23.6659     4.1850     5.4102 F         1 MOL       0.0000
    925 S17         23.2367    -0.5794     9.9379 S         1 MOL       0.0000
    926 S18         24.3394     1.5421     6.0862 S         1 MOL       0.0000
    927 N48         16.0850    -0.8843     6.3274 N         1 MOL       0.0000
    928 N49         14.1101    -0.9855     6.5886 N         1 MOL       0.0000
    929 C303        17.2412    -0.3783     6.0730 C         1 MOL       0.0000
    930 C304        14.9375    -0.2187     6.2345 C         1 MOL       0.0000
    931 C305        15.9803    -2.1102     6.7488 C         1 MOL       0.0000
    932 C306        18.4228    -1.0652     4.8992 C         1 MOL       0.0000
    933 C307        14.7501    -2.1750     6.9048 C         1 MOL       0.0000
    934 C308        12.8215    -0.6318     6.3882 C         1 MOL       0.0000
    935 H270        17.3761    -0.4050     7.2788 H         1 MOL       0.0000
    936 H271        17.0138     0.5969     5.6220 H         1 MOL       0.0000
    937 H272        14.7204     0.7587     5.8506 H         1 MOL       0.0000
    938 H273        19.2408    -0.6661     4.8423 H         1 MOL       0.0000
    939 H274        16.8024    -2.8259     6.8216 H         1 MOL       0.0000
    940 H275        12.1594    -1.0176     7.4593 H         1 MOL       0.0000
    941 H276        12.5461     0.3823     6.2711 H         1 MOL       0.0000
    942 H277        18.6426    -2.0543     5.2987 H         1 MOL       0.0000
    943 H278        14.2830    -2.9571     7.1998 H         1 MOL       0.0000
    944 H279        18.3357    -0.9849     3.6544 H         1 MOL       0.0000
    945 H280        28.8326    -1.5571     5.3801 H         1 MOL       0.0000
    946 N50         15.7632    -0.1481     0.3310 N         1 MOL       0.0000
    947 C309        23.0200    11.1615     3.1832 C         1 MOL       0.0000
    948 C310        26.2045    -5.8094    10.9599 C         1 MOL       0.0000
    949 O197        14.4068     2.0103     1.1243 O         1 MOL       0.0000
    950 O198        10.3203    11.7464     3.3970 O         1 MOL       0.0000
    951 O199        12.0846    -5.3219    12.4112 O         1 MOL       0.0000
    952 O200        11.9251    12.7213     1.2008 O         1 MOL       0.0000
    953 F55         21.9251    10.5744     3.8172 F         1 MOL       0.0000
    954 F56         24.9993    -5.8558    11.1714 F         1 MOL       0.0000
    955 F57         19.6991     4.1480    12.4909 F         1 MOL       0.0000
    956 F58         23.9989    10.1641     2.5149 F         1 MOL       0.0000
    957 F59         11.2321    -3.4741    10.6457 F         1 MOL       0.0000
    958 F60         21.6040     6.6240    10.0434 F         1 MOL       0.0000
    959 S19         10.8226    -5.6858    12.9658 S         1 MOL       0.0000
    960 S20         10.6499    12.3843     1.7342 S         1 MOL       0.0000
    961 Ti41        20.1125   -12.8828    24.1963 Ti        1 MOL       0.0000
    962 Ti42        12.8473    -3.9281    21.5795 Ti        1 MOL       0.0000
    963 Ti43         3.2715     0.7963    22.3107 Ti        1 MOL       0.0000
    964 Ti44         7.4017    -3.7234    21.9170 Ti        1 MOL       0.0000
    965 Ti45         6.4377    -1.5635    20.3537 Ti        1 MOL       0.0000
    966 Ti46         3.9504    -0.2292    25.0749 Ti        1 MOL       0.0000
    967 Ti47        15.9320     1.5608    21.8582 Ti        1 MOL       0.0000
    968 Ti48        10.7025    -4.9195    22.5858 Ti        1 MOL       0.0000
    969 H281        18.1980    -9.8066    26.1678 H         1 MOL       0.0000
    970 H282        15.5862    -6.9174    20.3571 H         1 MOL       0.0000
    971 H283        11.5993     0.9253    21.4093 H         1 MOL       0.0000
    972 H284        13.7888    -2.1618    24.4617 H         1 MOL       0.0000
    973 H285         7.1298    -2.9158    23.1658 H         1 MOL       0.0000
    974 H286        20.0234    -3.1908    18.4513 H         1 MOL       0.0000
    975 H287         8.4117    -1.7204    17.9139 H         1 MOL       0.0000
    976 H288        12.3813    -3.4073    18.8272 H         1 MOL       0.0000
    977 H289         6.6703     2.2918    19.4923 H         1 MOL       0.0000
    978 H290         3.8758    -4.4939    25.5883 H         1 MOL       0.0000
    979 H291        17.9005   -10.7976    21.2200 H         1 MOL       0.0000
    980 H292        15.0546    -6.4077    24.2159 H         1 MOL       0.0000
    981 H293        21.4684    -9.8249    18.3150 H         1 MOL       0.0000
    982 H294        18.4756    -2.3734    22.1611 H         1 MOL       0.0000
    983 H295         4.5366     0.3315    22.9486 H         1 MOL       0.0000
    984 H296        16.2516    -9.0843    20.4741 H         1 MOL       0.0000
    985 H297         9.4416    -3.0063    21.4624 H         1 MOL       0.0000
    986 H298         7.5150   -13.2572    24.0422 H         1 MOL       0.0000
    987 H299        17.2957    -4.9926    13.5001 H         1 MOL       0.0000
    988 H300        16.3384    -5.9105    13.2756 H         1 MOL       0.0000
    989 H301        15.4262    -1.0364    14.8964 H         1 MOL       0.0000
    990 H302        10.7901    -7.0303    26.2699 H         1 MOL       0.0000
    991 H303         8.8446    -1.0880    23.6375 H         1 MOL       0.0000
    992 H304         7.1889    -0.6586    24.0056 H         1 MOL       0.0000
    993 C311        12.6323    -5.9528    24.3580 C         1 MOL       0.0000
    994 C312        20.3576   -11.2674    21.0049 C         1 MOL       0.0000
    995 C313         5.8919     0.8317    22.1683 C         1 MOL       0.0000
    996 C314         4.6177    -2.9900    22.8927 C         1 MOL       0.0000
    997 C315        13.2179    -6.8362    25.4970 C         1 MOL       0.0000
    998 C316        19.7297   -10.3824    19.8764 C         1 MOL       0.0000
    999 C317         7.2136     0.9891    21.3844 C         1 MOL       0.0000
   1000 C318         3.2906    -3.1458    23.7704 C         1 MOL       0.0000
   1001 C319        17.1382    -0.4979    13.7202 C         1 MOL       0.0000
   1002 C320        20.4436    -9.7018    18.5381 C         1 MOL       0.0000
   1003 C321         8.2402     0.3072    22.0205 C         1 MOL       0.0000
   1004 C322        18.2762    -3.0119    23.2560 C         1 MOL       0.0000
   1005 C323         3.0693    -3.9720    25.1652 C         1 MOL       0.0000
   1006 C324         7.4728     1.8029    19.9447 C         1 MOL       0.0000
   1007 C325        14.5461    -6.9732    25.2382 C         1 MOL       0.0000
   1008 C326        18.4191   -10.2589    20.1717 C         1 MOL       0.0000
   1009 C327        16.3008    -5.7090    18.2456 C         1 MOL       0.0000
   1010 C328         5.0445     2.3271    20.9223 C         1 MOL       0.0000
   1011 C329        14.5352    -1.0698    22.2266 C         1 MOL       0.0000
   1012 C330        20.9032    -1.9756    16.4157 C         1 MOL       0.0000
   1013 C331         8.5756    -6.4390    23.0839 C         1 MOL       0.0000
   1014 C332        18.4872     0.7676    19.1320 C         1 MOL       0.0000
   1015 C333        15.3539    -4.6286    18.8794 C         1 MOL       0.0000
   1016 C334         5.8514     1.2694    20.1248 C         1 MOL       0.0000
   1017 C335        14.0385    -1.7008    21.3202 C         1 MOL       0.0000
   1018 C336        21.5630    -1.5220    17.3445 C         1 MOL       0.0000
   1019 C337        16.2811    -6.8633    19.1601 C         1 MOL       0.0000
   1020 C338        22.1597    -2.7922    14.2840 C         1 MOL       0.0000
   1021 C339        14.3538    -1.4540    23.9221 C         1 MOL       0.0000
   1022 C340        11.0091     0.2367    21.9547 C         1 MOL       0.0000
   1023 C341        16.3647    -5.8812    15.6316 C         1 MOL       0.0000
   1024 C342        20.1476    -2.8771    17.1648 C         1 MOL       0.0000
   1025 C343         7.1284    -3.8134    23.8719 C         1 MOL       0.0000
   1026 C344        10.6793   -12.3853    22.5880 C         1 MOL       0.0000
   1027 N51          4.1079     1.1230    23.4968 N         1 MOL       0.0000
   1028 N52         16.5430    -5.4172    14.0149 N         1 MOL       0.0000
   1029 N53         15.8558    -0.4241    14.0346 N         1 MOL       0.0000
   1030 N54          8.0749    -0.4809    23.4222 N         1 MOL       0.0000
   1031 O201        11.4911    -5.9804    24.3395 O         1 MOL       0.0000
   1032 O202        21.5698   -11.6747    20.5163 O         1 MOL       0.0000
   1033 O203         5.6259     0.3115    23.6398 O         1 MOL       0.0000
   1034 O204         4.7518    -2.0331    21.8758 O         1 MOL       0.0000
   1035 O205         5.5513    -3.8233    23.1855 O         1 MOL       0.0000
   1036 O206         5.0548     1.1917    21.3642 O         1 MOL       0.0000
   1037 O207        13.2906    -5.1953    23.3930 O         1 MOL       0.0000
   1038 O208        19.6372   -11.5917    22.3994 O         1 MOL       0.0000
   1039 O209        12.0585    -5.1501    20.9380 O         1 MOL       0.0000
   1040 O210        21.6114   -12.2280    23.7109 O         1 MOL       0.0000
   1041 O211        11.1464    -3.5828    22.9938 O         1 MOL       0.0000
   1042 O212        14.8001     0.6385    22.4148 O         1 MOL       0.0000
   1043 O213         3.6838    -0.7241    23.1149 O         1 MOL       0.0000
   1044 O214         7.0755    -2.1059    22.2141 O         1 MOL       0.0000
   1045 O215         9.6441   -13.2962    24.3095 O         1 MOL       0.0000
   1046 O216         7.1951    -3.3288    19.9729 O         1 MOL       0.0000
   1047 O217         9.6078    -6.2448    23.2484 O         1 MOL       0.0000
   1048 O218        17.3049     1.2608    19.6978 O         1 MOL       0.0000
   1049 O219         5.2705    -1.7918    25.1703 O         1 MOL       0.0000
   1050 O220         5.8196     0.1495    20.8280 O         1 MOL       0.0000
   1051 O221        15.2872    -7.1695    13.9150 O         1 MOL       0.0000
   1052 O222         5.4752    -1.4374    18.7407 O         1 MOL       0.0000
   1053 O223        19.2558     0.4335    20.0209 O         1 MOL       0.0000
   1054 O224         7.7209    -5.5721    22.6805 O         1 MOL       0.0000
   1055 O225        13.4508    -2.6017    22.0488 O         1 MOL       0.0000
   1056 O226        18.6753   -13.4995    23.8948 O         1 MOL       0.0000
   1057 O227        14.5615    -4.7581    20.3104 O         1 MOL       0.0000
   1058 O228        19.0649   -11.9601    25.9927 O         1 MOL       0.0000
   1059 O229         9.2727    -3.8427    21.7293 O         1 MOL       0.0000
   1060 O230        17.3379     0.7180    22.9060 O         1 MOL       0.0000
   1061 O231        12.6633    -2.9027    19.4117 O         1 MOL       0.0000
   1062 O232         7.8940    -1.0189    18.5162 O         1 MOL       0.0000
   1063 H305         9.8561   -10.6623    24.3952 H         1 MOL       0.0000
   1064 H306        20.9414     0.2101    17.2915 H         1 MOL       0.0000
   1065 H307         6.1461    -2.7476    26.2192 H         1 MOL       0.0000
   1066 H308        10.2222    -8.4872    23.7559 H         1 MOL       0.0000
   1067 H309         6.0567    -9.3826    23.9043 H         1 MOL       0.0000
   1068 H310        17.0560     0.5937    17.2469 H         1 MOL       0.0000
   1069 H311         7.7919   -11.0915    24.4170 H         1 MOL       0.0000
   1070 H312         6.4099    -7.2000    23.3345 H         1 MOL       0.0000
   1071 H313         8.4727    -3.2785    24.8503 H         1 MOL       0.0000
   1072 H314        15.2975    -4.9665    18.5262 H         1 MOL       0.0000
   1073 C345         8.3447    -7.7184    23.4807 C         1 MOL       0.0000
   1074 C346         7.9378   -10.1425    24.1794 C         1 MOL       0.0000
   1075 C347         8.1385    -2.9475    26.0593 C         1 MOL       0.0000
   1076 C348        18.9557     0.4387    17.4266 C         1 MOL       0.0000
   1077 C349         7.1583    -7.9646    23.5493 C         1 MOL       0.0000
   1078 C350         9.1079    -9.9008    24.1619 C         1 MOL       0.0000
   1079 C351        11.4609     4.4282    13.7253 C         1 MOL       0.0000
   1080 C352        20.2720     0.1243    16.6601 C         1 MOL       0.0000
   1081 C353        13.6592     4.2390    13.7318 C         1 MOL       0.0000
   1082 C354        18.0702     0.3486    16.6303 C         1 MOL       0.0000
   1083 C355         9.3114    -8.6917    23.8150 C         1 MOL       0.0000
   1084 C356         6.9633    -9.1781    23.8771 C         1 MOL       0.0000
   1085 N55         18.6864   -10.6246    20.7846 N         1 MOL       0.0000
   1086 N56         20.6725   -10.5342    19.4661 N         1 MOL       0.0000
   1087 C357        18.6767    -9.6009    19.6592 C         1 MOL       0.0000
   1088 C358        19.9134    -9.5494    18.8236 C         1 MOL       0.0000
   1089 C359        22.4410    -9.6232    19.6300 C         1 MOL       0.0000
   1090 C360        17.5987   -10.8144    22.2166 C         1 MOL       0.0000
   1091 C361        19.9090   -11.1615    20.6776 C         1 MOL       0.0000
   1092 C362        22.0619   -10.6937    19.1251 C         1 MOL       0.0000
   1093 H315        17.8209    -8.9091    19.6787 H         1 MOL       0.0000
   1094 H316        20.2926    -8.8468    17.9208 H         1 MOL       0.0000
   1095 H317        22.1601    -8.7425    18.9384 H         1 MOL       0.0000
   1096 H318        16.9775    -9.9125    22.4345 H         1 MOL       0.0000
   1097 H319        22.0184    -9.5242    20.9434 H         1 MOL       0.0000
   1098 H320        17.0989   -11.4490    21.9707 H         1 MOL       0.0000
   1099 H321        23.4844    -9.8125    19.3421 H         1 MOL       0.0000
   1100 H322        15.9744     3.8300    17.7606 H         1 MOL       0.0000
   1101 H323        17.9686   -11.1675    23.2675 H         1 MOL       0.0000
   1102 H324        20.2153   -11.9437    21.4846 H         1 MOL       0.0000
   1103 H325        22.3599   -11.5753    19.7936 H         1 MOL       0.0000
   1104 N57         18.0207    -6.8250    21.8288 N         1 MOL       0.0000
   1105 C363         3.8969    -6.3180    24.9240 C         1 MOL       0.0000
   1106 C364        18.7982    -2.9958    20.1487 C         1 MOL       0.0000
   1107 O233        17.1927    -8.1972    25.3793 O         1 MOL       0.0000
   1108 O234        20.7387    -9.0862    23.6296 O         1 MOL       0.0000
   1109 O235        18.9961    -6.1204    18.4972 O         1 MOL       0.0000
   1110 O236        20.6206    -4.8718    18.0203 O         1 MOL       0.0000
   1111 F61         23.4778     0.1149    13.2614 F         1 MOL       0.0000
   1112 F62         16.3745    -2.7152    23.4397 F         1 MOL       0.0000
   1113 F63          4.5346    -5.5352    25.3167 F         1 MOL       0.0000
   1114 F64         22.2955    -1.9936    14.5940 F         1 MOL       0.0000
   1115 F65         17.7075    -2.2040    20.6436 F         1 MOL       0.0000
   1116 F66         19.0309    -2.8810    18.5052 F         1 MOL       0.0000
   1117 S21         18.6017    -7.6454    23.0329 S         1 MOL       0.0000
   1118 S22         19.7044    -5.5239    19.1812 S         1 MOL       0.0000
   1119 N58         11.4500    -7.9503    19.4224 N         1 MOL       0.0000
   1120 N59          9.4751    -8.0515    19.6836 N         1 MOL       0.0000
   1121 C365        12.6062    -7.4443    19.1680 C         1 MOL       0.0000
   1122 C366        10.3025    -7.2847    19.3295 C         1 MOL       0.0000
   1123 C367        11.3453    -9.1762    19.8438 C         1 MOL       0.0000
   1124 C368        13.7878    -8.1312    17.9942 C         1 MOL       0.0000
   1125 C369        10.1151    -9.2410    19.9998 C         1 MOL       0.0000
   1126 C370         8.1865    -7.6978    19.4832 C         1 MOL       0.0000
   1127 H326        12.7411    -7.4710    20.3738 H         1 MOL       0.0000
   1128 H327        12.3788    -6.4691    18.7170 H         1 MOL       0.0000
   1129 H328        10.0854    -6.3073    18.9456 H         1 MOL       0.0000
   1130 H329        14.6058    -7.7321    17.9373 H         1 MOL       0.0000
   1131 H330        12.1674    -9.8919    19.9166 H         1 MOL       0.0000
   1132 H331         7.5244    -8.0836    20.5543 H         1 MOL       0.0000
   1133 H332         7.9111    -6.6837    19.3661 H         1 MOL       0.0000
   1134 H333        14.0076    -9.1203    18.3937 H         1 MOL       0.0000
   1135 H334         9.6480   -10.0231    20.2948 H         1 MOL       0.0000
   1136 H335        13.7007    -8.0509    16.7494 H         1 MOL       0.0000
   1137 H336        24.1976    -8.6231    18.4751 H         1 MOL       0.0000
   1138 N60         11.1282    -7.2141    13.4260 N         1 MOL       0.0000
   1139 C371        18.3850     4.0955    16.2782 C         1 MOL       0.0000
   1140 C372        21.5695   -12.8754    24.0549 C         1 MOL       0.0000
   1141 O237         9.7718    -5.0557    14.2193 O         1 MOL       0.0000
   1142 O238         5.6853     4.6804    16.4920 O         1 MOL       0.0000
   1143 O239         7.4496   -12.3879    25.5062 O         1 MOL       0.0000
   1144 O240         7.2901     5.6553    14.2958 O         1 MOL       0.0000
   1145 F67         17.2901     3.5084    16.9122 F         1 MOL       0.0000
   1146 F68         20.3643   -12.9218    24.2664 F         1 MOL       0.0000
   1147 F69         15.0641    -2.9180    25.5859 F         1 MOL       0.0000
   1148 F70         19.3639     3.0981    15.6099 F         1 MOL       0.0000
   1149 F71          6.5971   -10.5401    23.7407 F         1 MOL       0.0000
   1150 F72         16.9690    -0.4420    23.1384 F         1 MOL       0.0000
   1151 S23          6.1876   -12.7518    26.0608 S         1 MOL       0.0000
   1152 S24          6.0149     5.3183    14.8292 S         1 MOL       0.0000
   1153 Ti49        18.2305     8.7962    11.0443 Ti        1 MOL       0.0000
   1154 Ti50        10.9653    17.7509     8.4275 Ti        1 MOL       0.0000
   1155 Ti51         1.3895    22.4753     9.1587 Ti        1 MOL       0.0000
   1156 Ti52         5.5197    17.9556     8.7650 Ti        1 MOL       0.0000
   1157 Ti53         4.5557    20.1155     7.2017 Ti        1 MOL       0.0000
   1158 Ti54         2.0684    21.4498    11.9229 Ti        1 MOL       0.0000
   1159 Ti55        14.0500    23.2398     8.7062 Ti        1 MOL       0.0000
   1160 Ti56         8.8205    16.7595     9.4338 Ti        1 MOL       0.0000
   1161 H337        16.3160    11.8724    13.0158 H         1 MOL       0.0000
   1162 H338        13.7042    14.7616     7.2051 H         1 MOL       0.0000
   1163 H339         9.7173    22.6043     8.2573 H         1 MOL       0.0000
   1164 H340        11.9068    19.5172    11.3097 H         1 MOL       0.0000
   1165 H341         5.2478    18.7632    10.0138 H         1 MOL       0.0000
   1166 H342        18.1414    18.4882     5.2993 H         1 MOL       0.0000
   1167 H343         6.5297    19.9586     4.7619 H         1 MOL       0.0000
   1168 H344        10.4993    18.2717     5.6752 H         1 MOL       0.0000
   1169 H345         4.7883    23.9708     6.3403 H         1 MOL       0.0000
   1170 H346         1.9938    17.1851    12.4363 H         1 MOL       0.0000
   1171 H347        16.0185    10.8814     8.0680 H         1 MOL       0.0000
   1172 H348        13.1726    15.2713    11.0639 H         1 MOL       0.0000
   1173 H349        19.5864    11.8541     5.1630 H         1 MOL       0.0000
   1174 H350        16.5936    19.3056     9.0091 H         1 MOL       0.0000
   1175 H351         2.6546    22.0105     9.7966 H         1 MOL       0.0000
   1176 H352        14.3696    12.5947     7.3221 H         1 MOL       0.0000
   1177 H353         7.5596    18.6727     8.3104 H         1 MOL       0.0000
   1178 H354         5.6330     8.4218    10.8902 H         1 MOL       0.0000
   1179 H355        15.4137    16.6864     0.3481 H         1 MOL       0.0000
   1180 H356        14.4564    15.7685     0.1236 H         1 MOL       0.0000
   1181 H357        13.5442    20.6426     1.7444 H         1 MOL       0.0000
   1182 H358         8.9081    14.6487    13.1179 H         1 MOL       0.0000
   1183 H359         6.9626    20.5910    10.4855 H         1 MOL       0.0000
   1184 H360         5.3069    21.0204    10.8536 H         1 MOL       0.0000
   1185 C373        10.7503    15.7262    11.2060 C         1 MOL       0.0000
   1186 C374        18.4756    10.4116     7.8529 C         1 MOL       0.0000
   1187 C375         4.0099    22.5107     9.0163 C         1 MOL       0.0000
   1188 C376         2.7357    18.6890     9.7407 C         1 MOL       0.0000
   1189 C377        11.3359    14.8428    12.3450 C         1 MOL       0.0000
   1190 C378        17.8477    11.2966     6.7244 C         1 MOL       0.0000
   1191 C379         5.3316    22.6681     8.2324 C         1 MOL       0.0000
   1192 C380         1.4086    18.5332    10.6184 C         1 MOL       0.0000
   1193 C381        15.2562    21.1811     0.5682 C         1 MOL       0.0000
   1194 C382        18.5616    11.9772     5.3861 C         1 MOL       0.0000
   1195 C383         6.3582    21.9862     8.8685 C         1 MOL       0.0000
   1196 C384        16.3942    18.6671    10.1040 C         1 MOL       0.0000
   1197 C385         1.1873    17.7070    12.0132 C         1 MOL       0.0000
   1198 C386         5.5908    23.4819     6.7927 C         1 MOL       0.0000
   1199 C387        12.6641    14.7058    12.0862 C         1 MOL       0.0000
   1200 C388        16.5371    11.4201     7.0197 C         1 MOL       0.0000
   1201 C389        14.4188    15.9700     5.0936 C         1 MOL       0.0000
   1202 C390         3.1625    24.0061     7.7703 C         1 MOL       0.0000
   1203 C391        12.6532    20.6092     9.0746 C         1 MOL       0.0000
   1204 C392        19.0212    19.7034     3.2637 C         1 MOL       0.0000
   1205 C393         6.6936    15.2400     9.9319 C         1 MOL       0.0000
   1206 C394        16.6052    22.4466     5.9800 C         1 MOL       0.0000
   1207 C395        13.4719    17.0504     5.7274 C         1 MOL       0.0000
   1208 C396         3.9694    22.9484     6.9728 C         1 MOL       0.0000
   1209 C397        12.1565    19.9782     8.1682 C         1 MOL       0.0000
   1210 C398        19.6810    20.1570     4.1925 C         1 MOL       0.0000
   1211 C399        14.3991    14.8157     6.0081 C         1 MOL       0.0000
   1212 C400        20.2777    18.8868     1.1320 C         1 MOL       0.0000
   1213 C401        12.4718    20.2250    10.7701 C         1 MOL       0.0000
   1214 C402         9.1271    21.9157     8.8027 C         1 MOL       0.0000
   1215 C403        14.4827    15.7978     2.4796 C         1 MOL       0.0000
   1216 C404        18.2656    18.8019     4.0128 C         1 MOL       0.0000
   1217 C405         5.2464    17.8656    10.7199 C         1 MOL       0.0000
   1218 C406         8.7973     9.2937     9.4360 C         1 MOL       0.0000
   1219 N61          2.2259    22.8020    10.3448 N         1 MOL       0.0000
   1220 N62         14.6610    16.2618     0.8629 N         1 MOL       0.0000
   1221 N63         13.9738    21.2549     0.8826 N         1 MOL       0.0000
   1222 N64          6.1929    21.1981    10.2702 N         1 MOL       0.0000
   1223 O241         9.6091    15.6986    11.1875 O         1 MOL       0.0000
   1224 O242        19.6878    10.0043     7.3643 O         1 MOL       0.0000
   1225 O243         3.7439    21.9905    10.4878 O         1 MOL       0.0000
   1226 O244         2.8698    19.6459     8.7238 O         1 MOL       0.0000
   1227 O245         3.6693    17.8557    10.0335 O         1 MOL       0.0000
   1228 O246         3.1728    22.8707     8.2122 O         1 MOL       0.0000
   1229 O247        11.4086    16.4837    10.2410 O         1 MOL       0.0000
   1230 O248        17.7552    10.0873     9.2474 O         1 MOL       0.0000
   1231 O249        10.1765    16.5289     7.7860 O         1 MOL       0.0000
   1232 O250        19.7294     9.4510    10.5589 O         1 MOL       0.0000
   1233 O251         9.2644    18.0962     9.8418 O         1 MOL       0.0000
   1234 O252        12.9181    22.3175     9.2628 O         1 MOL       0.0000
   1235 O253         1.8018    20.9549     9.9629 O         1 MOL       0.0000
   1236 O254         5.1935    19.5731     9.0621 O         1 MOL       0.0000
   1237 O255         7.7621     8.3828    11.1575 O         1 MOL       0.0000
   1238 O256         5.3131    18.3502     6.8209 O         1 MOL       0.0000
   1239 O257         7.7258    15.4342    10.0964 O         1 MOL       0.0000
   1240 O258        15.4229    22.9398     6.5458 O         1 MOL       0.0000
   1241 O259         3.3885    19.8872    12.0183 O         1 MOL       0.0000
   1242 O260         3.9376    21.8285     7.6760 O         1 MOL       0.0000
   1243 O261        13.4052    14.5095     0.7630 O         1 MOL       0.0000
   1244 O262         3.5932    20.2416     5.5887 O         1 MOL       0.0000
   1245 O263        17.3738    22.1125     6.8689 O         1 MOL       0.0000
   1246 O264         5.8389    16.1069     9.5285 O         1 MOL       0.0000
   1247 O265        11.5688    19.0773     8.8968 O         1 MOL       0.0000
   1248 O266        16.7933     8.1795    10.7428 O         1 MOL       0.0000
   1249 O267        12.6795    16.9209     7.1584 O         1 MOL       0.0000
   1250 O268        17.1829     9.7189    12.8407 O         1 MOL       0.0000
   1251 O269         7.3907    17.8363     8.5773 O         1 MOL       0.0000
   1252 O270        15.4559    22.3970     9.7540 O         1 MOL       0.0000
   1253 O271        10.7813    18.7763     6.2597 O         1 MOL       0.0000
   1254 O272         6.0120    20.6601     5.3642 O         1 MOL       0.0000
   1255 H361         7.9741    11.0167    11.2432 H         1 MOL       0.0000
   1256 H362        19.0594    21.8891     4.1395 H         1 MOL       0.0000
   1257 H363         4.2641    18.9314    13.0672 H         1 MOL       0.0000
   1258 H364         8.3402    13.1918    10.6039 H         1 MOL       0.0000
   1259 H365         4.1747    12.2964    10.7523 H         1 MOL       0.0000
   1260 H366        15.1740    22.2727     4.0949 H         1 MOL       0.0000
   1261 H367         5.9099    10.5875    11.2650 H         1 MOL       0.0000
   1262 H368         4.5279    14.4790    10.1825 H         1 MOL       0.0000
   1263 H369         6.5907    18.4005    11.6983 H         1 MOL       0.0000
   1264 H370        13.4155    16.7125     5.3742 H         1 MOL       0.0000
   1265 C407         6.4627    13.9606    10.3287 C         1 MOL       0.0000
   1266 C408         6.0558    11.5365    11.0274 C         1 MOL       0.0000
   1267 C409         6.2565    18.7315    12.9073 C         1 MOL       0.0000
   1268 C410        17.0737    22.1177     4.2746 C         1 MOL       0.0000
   1269 C411         5.2763    13.7144    10.3973 C         1 MOL       0.0000
   1270 C412         7.2259    11.7782    11.0099 C         1 MOL       0.0000
   1271 C413         9.5789    26.1072     0.5733 C         1 MOL       0.0000
   1272 C414        18.3900    21.8033     3.5081 C         1 MOL       0.0000
   1273 C415        11.7772    25.9180     0.5798 C         1 MOL       0.0000
   1274 C416        16.1882    22.0276     3.4783 C         1 MOL       0.0000
   1275 C417         7.4294    12.9873    10.6630 C         1 MOL       0.0000
   1276 C418         5.0813    12.5009    10.7251 C         1 MOL       0.0000
   1277 N65         16.8044    11.0544     7.6326 N         1 MOL       0.0000
   1278 N66         18.7905    11.1448     6.3141 N         1 MOL       0.0000
   1279 C419        16.7947    12.0781     6.5072 C         1 MOL       0.0000
   1280 C420        18.0314    12.1296     5.6716 C         1 MOL       0.0000
   1281 C421        20.5590    12.0558     6.4780 C         1 MOL       0.0000
   1282 C422        15.7167    10.8646     9.0646 C         1 MOL       0.0000
   1283 C423        18.0270    10.5175     7.5256 C         1 MOL       0.0000
   1284 C424        20.1799    10.9853     5.9731 C         1 MOL       0.0000
   1285 H371        15.9389    12.7699     6.5267 H         1 MOL       0.0000
   1286 H372        18.4106    12.8322     4.7688 H         1 MOL       0.0000
   1287 H373        20.2781    12.9365     5.7864 H         1 MOL       0.0000
   1288 H374        15.0955    11.7665     9.2825 H         1 MOL       0.0000
   1289 H375        20.1364    12.1548     7.7914 H         1 MOL       0.0000
   1290 H376        15.2169    10.2300     8.8187 H         1 MOL       0.0000
   1291 H377        21.6024    11.8665     6.1901 H         1 MOL       0.0000
   1292 H378        14.0924    25.5090     4.6086 H         1 MOL       0.0000
   1293 H379        16.0866    10.5115    10.1155 H         1 MOL       0.0000
   1294 H380        18.3333     9.7353     8.3326 H         1 MOL       0.0000
   1295 H381        20.4779    10.1037     6.6416 H         1 MOL       0.0000
   1296 N67         16.1387    14.8540     8.6768 N         1 MOL       0.0000
   1297 C425         2.0149    15.3610    11.7720 C         1 MOL       0.0000
   1298 C426        16.9162    18.6832     6.9967 C         1 MOL       0.0000
   1299 O273        15.3107    13.4818    12.2273 O         1 MOL       0.0000
   1300 O274        18.8567    12.5928    10.4776 O         1 MOL       0.0000
   1301 O275        17.1141    15.5586     5.3452 O         1 MOL       0.0000
   1302 O276        18.7386    16.8072     4.8683 O         1 MOL       0.0000
   1303 F73         21.5958    21.7939     0.1094 F         1 MOL       0.0000
   1304 F74         14.4925    18.9638    10.2877 F         1 MOL       0.0000
   1305 F75          2.6526    16.1438    12.1647 F         1 MOL       0.0000
   1306 F76         20.4135    19.6854     1.4420 F         1 MOL       0.0000
   1307 F77         15.8255    19.4750     7.4916 F         1 MOL       0.0000
   1308 F78         17.1489    18.7980     5.3532 F         1 MOL       0.0000
   1309 S25         16.7197    14.0336     9.8809 S         1 MOL       0.0000
   1310 S26         17.8224    16.1551     6.0292 S         1 MOL       0.0000
   1311 N68          9.5680    13.7287     6.2704 N         1 MOL       0.0000
   1312 N69          7.5931    13.6275     6.5316 N         1 MOL       0.0000
   1313 C427        10.7242    14.2347     6.0160 C         1 MOL       0.0000
   1314 C428         8.4205    14.3943     6.1775 C         1 MOL       0.0000
   1315 C429         9.4633    12.5028     6.6918 C         1 MOL       0.0000
   1316 C430        11.9058    13.5478     4.8422 C         1 MOL       0.0000
   1317 C431         8.2331    12.4380     6.8478 C         1 MOL       0.0000
   1318 C432         6.3045    13.9812     6.3312 C         1 MOL       0.0000
   1319 H382        10.8591    14.2080     7.2218 H         1 MOL       0.0000
   1320 H383        10.4968    15.2099     5.5650 H         1 MOL       0.0000
   1321 H384         8.2034    15.3717     5.7936 H         1 MOL       0.0000
   1322 H385        12.7238    13.9469     4.7853 H         1 MOL       0.0000
   1323 H386        10.2854    11.7871     6.7646 H         1 MOL       0.0000
   1324 H387         5.6424    13.5954     7.4023 H         1 MOL       0.0000
   1325 H388         6.0291    14.9953     6.2141 H         1 MOL       0.0000
   1326 H389        12.1256    12.5587     5.2417 H         1 MOL       0.0000
   1327 H390         7.7660    11.6559     7.1428 H         1 MOL       0.0000
   1328 H391        11.8187    13.6281     3.5974 H         1 MOL       0.0000
   1329 H392        22.3156    13.0559     5.3231 H         1 MOL       0.0000
   1330 N70          9.2462    14.4649     0.2740 N         1 MOL       0.0000
   1331 C433        16.5030    25.7745     3.1262 C         1 MOL       0.0000
   1332 C434        19.6875     8.8036    10.9029 C         1 MOL       0.0000
   1333 O277         7.8898    16.6233     1.0673 O         1 MOL       0.0000
   1334 O278         3.8033    26.3594     3.3400 O         1 MOL       0.0000
   1335 O279         5.5676     9.2911    12.3542 O         1 MOL       0.0000
   1336 O280         5.4081    27.3343     1.1438 O         1 MOL       0.0000
   1337 F79         15.4081    25.1874     3.7602 F         1 MOL       0.0000
   1338 F80         18.4823     8.7572    11.1144 F         1 MOL       0.0000
   1339 F81         13.1821    18.7610    12.4339 F         1 MOL       0.0000
   1340 F82         17.4819    24.7771     2.4579 F         1 MOL       0.0000
   1341 F83          4.7151    11.1389    10.5887 F         1 MOL       0.0000
   1342 F84         15.0870    21.2370     9.9864 F         1 MOL       0.0000
   1343 S27          4.3056     8.9272    12.9088 S         1 MOL       0.0000
   1344 S28          4.1329    26.9973     1.6772 S         1 MOL       0.0000
   1345 Ti57        13.5955     1.7302    24.1393 Ti        1 MOL       0.0000
   1346 Ti58         6.3303    10.6849    21.5225 Ti        1 MOL       0.0000
   1347 Ti59        -3.2455    15.4093    22.2537 Ti        1 MOL       0.0000
   1348 Ti60         0.8847    10.8896    21.8600 Ti        1 MOL       0.0000
   1349 Ti61        -0.0793    13.0495    20.2967 Ti        1 MOL       0.0000
   1350 Ti62        -2.5666    14.3838    25.0179 Ti        1 MOL       0.0000
   1351 Ti63         9.4150    16.1738    21.8012 Ti        1 MOL       0.0000
   1352 Ti64         4.1855     9.6935    22.5288 Ti        1 MOL       0.0000
   1353 H393        11.6810     4.8064    26.1108 H         1 MOL       0.0000
   1354 H394         9.0692     7.6956    20.3001 H         1 MOL       0.0000
   1355 H395         5.0823    15.5383    21.3523 H         1 MOL       0.0000
   1356 H396         7.2718    12.4512    24.4047 H         1 MOL       0.0000
   1357 H397         0.6128    11.6972    23.1088 H         1 MOL       0.0000
   1358 H398        13.5064    11.4222    18.3943 H         1 MOL       0.0000
   1359 H399         1.8947    12.8926    17.8569 H         1 MOL       0.0000
   1360 H400         5.8643    11.2057    18.7702 H         1 MOL       0.0000
   1361 H401         0.1533    16.9048    19.4353 H         1 MOL       0.0000
   1362 H402        -2.6412    10.1191    25.5313 H         1 MOL       0.0000
   1363 H403        11.3835     3.8154    21.1630 H         1 MOL       0.0000
   1364 H404         8.5376     8.2053    24.1589 H         1 MOL       0.0000
   1365 H405        14.9514     4.7881    18.2580 H         1 MOL       0.0000
   1366 H406        11.9586    12.2396    22.1041 H         1 MOL       0.0000
   1367 H407        -1.9804    14.9445    22.8916 H         1 MOL       0.0000
   1368 H408         9.7346     5.5287    20.4171 H         1 MOL       0.0000
   1369 H409         2.9246    11.6067    21.4054 H         1 MOL       0.0000
   1370 H410         0.9980     1.3558    23.9852 H         1 MOL       0.0000
   1371 H411        10.7787     9.6204    13.4431 H         1 MOL       0.0000
   1372 H412         9.8214     8.7025    13.2186 H         1 MOL       0.0000
   1373 H413         8.9092    13.5766    14.8394 H         1 MOL       0.0000
   1374 H414         4.2731     7.5827    26.2129 H         1 MOL       0.0000
   1375 H415         2.3276    13.5250    23.5805 H         1 MOL       0.0000
   1376 H416         0.6719    13.9544    23.9486 H         1 MOL       0.0000
   1377 C435         6.1153     8.6602    24.3010 C         1 MOL       0.0000
   1378 C436        13.8406     3.3456    20.9479 C         1 MOL       0.0000
   1379 C437        -0.6251    15.4447    22.1113 C         1 MOL       0.0000
   1380 C438        -1.8993    11.6230    22.8357 C         1 MOL       0.0000
   1381 C439         6.7009     7.7768    25.4400 C         1 MOL       0.0000
   1382 C440        13.2127     4.2306    19.8194 C         1 MOL       0.0000
   1383 C441         0.6966    15.6021    21.3274 C         1 MOL       0.0000
   1384 C442        -3.2264    11.4672    23.7134 C         1 MOL       0.0000
   1385 C443        10.6212    14.1151    13.6632 C         1 MOL       0.0000
   1386 C444        13.9266     4.9112    18.4811 C         1 MOL       0.0000
   1387 C445         1.7232    14.9202    21.9635 C         1 MOL       0.0000
   1388 C446        11.7592    11.6011    23.1990 C         1 MOL       0.0000
   1389 C447        -3.4477    10.6410    25.1082 C         1 MOL       0.0000
   1390 C448         0.9558    16.4159    19.8877 C         1 MOL       0.0000
   1391 C449         8.0291     7.6398    25.1812 C         1 MOL       0.0000
   1392 C450        11.9021     4.3541    20.1147 C         1 MOL       0.0000
   1393 C451         9.7838     8.9040    18.1886 C         1 MOL       0.0000
   1394 C452        -1.4725    16.9401    20.8653 C         1 MOL       0.0000
   1395 C453         8.0182    13.5432    22.1696 C         1 MOL       0.0000
   1396 C454        14.3862    12.6374    16.3587 C         1 MOL       0.0000
   1397 C455         2.0586     8.1740    23.0269 C         1 MOL       0.0000
   1398 C456        11.9702    15.3806    19.0750 C         1 MOL       0.0000
   1399 C457         8.8369     9.9844    18.8224 C         1 MOL       0.0000
   1400 C458        -0.6656    15.8824    20.0678 C         1 MOL       0.0000
   1401 C459         7.5215    12.9122    21.2632 C         1 MOL       0.0000
   1402 C460        15.0460    13.0910    17.2875 C         1 MOL       0.0000
   1403 C461         9.7641     7.7497    19.1031 C         1 MOL       0.0000
   1404 C462        15.6427    11.8208    14.2270 C         1 MOL       0.0000
   1405 C463         7.8368    13.1590    23.8651 C         1 MOL       0.0000
   1406 C464         4.4921    14.8497    21.8977 C         1 MOL       0.0000
   1407 C465         9.8477     8.7318    15.5746 C         1 MOL       0.0000
   1408 C466        13.6306    11.7359    17.1078 C         1 MOL       0.0000
   1409 C467         0.6114    10.7996    23.8149 C         1 MOL       0.0000
   1410 C468         4.1623     2.2277    22.5310 C         1 MOL       0.0000
   1411 N71         -2.4091    15.7360    23.4398 N         1 MOL       0.0000
   1412 N72         10.0260     9.1958    13.9579 N         1 MOL       0.0000
   1413 N73          9.3388    14.1889    13.9776 N         1 MOL       0.0000
   1414 N74          1.5579    14.1321    23.3652 N         1 MOL       0.0000
   1415 O281         4.9741     8.6326    24.2825 O         1 MOL       0.0000
   1416 O282        15.0528     2.9383    20.4593 O         1 MOL       0.0000
   1417 O283        -0.8911    14.9245    23.5828 O         1 MOL       0.0000
   1418 O284        -1.7652    12.5799    21.8188 O         1 MOL       0.0000
   1419 O285        -0.9657    10.7897    23.1285 O         1 MOL       0.0000
   1420 O286        -1.4622    15.8047    21.3072 O         1 MOL       0.0000
   1421 O287         6.7736     9.4177    23.3360 O         1 MOL       0.0000
   1422 O288        13.1202     3.0213    22.3424 O         1 MOL       0.0000
   1423 O289         5.5415     9.4629    20.8810 O         1 MOL       0.0000
   1424 O290        15.0944     2.3850    23.6539 O         1 MOL       0.0000
   1425 O291         4.6294    11.0302    22.9368 O         1 MOL       0.0000
   1426 O292         8.2831    15.2515    22.3578 O         1 MOL       0.0000
   1427 O293        -2.8332    13.8889    23.0579 O         1 MOL       0.0000
   1428 O294         0.5585    12.5071    22.1571 O         1 MOL       0.0000
   1429 O295         3.1271     1.3168    24.2525 O         1 MOL       0.0000
   1430 O296         0.6781    11.2842    19.9159 O         1 MOL       0.0000
   1431 O297         3.0908     8.3682    23.1914 O         1 MOL       0.0000
   1432 O298        10.7879    15.8738    19.6408 O         1 MOL       0.0000
   1433 O299        -1.2465    12.8212    25.1133 O         1 MOL       0.0000
   1434 O300        -0.6974    14.7625    20.7710 O         1 MOL       0.0000
   1435 O301         8.7702     7.4435    13.8580 O         1 MOL       0.0000
   1436 O302        -1.0418    13.1756    18.6837 O         1 MOL       0.0000
   1437 O303        12.7388    15.0465    19.9639 O         1 MOL       0.0000
   1438 O304         1.2039     9.0409    22.6235 O         1 MOL       0.0000
   1439 O305         6.9338    12.0113    21.9918 O         1 MOL       0.0000
   1440 O306        12.1583     1.1135    23.8378 O         1 MOL       0.0000
   1441 O307         8.0445     9.8549    20.2534 O         1 MOL       0.0000
   1442 O308        12.5479     2.6529    25.9357 O         1 MOL       0.0000
   1443 O309         2.7557    10.7703    21.6723 O         1 MOL       0.0000
   1444 O310        10.8209    15.3310    22.8490 O         1 MOL       0.0000
   1445 O311         6.1463    11.7103    19.3547 O         1 MOL       0.0000
   1446 O312         1.3770    13.5941    18.4592 O         1 MOL       0.0000
   1447 H417         3.3391     3.9507    24.3382 H         1 MOL       0.0000
   1448 H418        14.4244    14.8231    17.2345 H         1 MOL       0.0000
   1449 H419        -0.3709    11.8654    26.1622 H         1 MOL       0.0000
   1450 H420         3.7052     6.1258    23.6989 H         1 MOL       0.0000
   1451 H421        -0.4603     5.2304    23.8473 H         1 MOL       0.0000
   1452 H422        10.5390    15.2067    17.1899 H         1 MOL       0.0000
   1453 H423         1.2749     3.5215    24.3600 H         1 MOL       0.0000
   1454 H424        -0.1071     7.4130    23.2775 H         1 MOL       0.0000
   1455 H425         1.9557    11.3345    24.7933 H         1 MOL       0.0000
   1456 H426         8.7805     9.6465    18.4692 H         1 MOL       0.0000
   1457 C469         1.8277     6.8946    23.4237 C         1 MOL       0.0000
   1458 C470         1.4208     4.4705    24.1224 C         1 MOL       0.0000
   1459 C471         1.6215    11.6655    26.0023 C         1 MOL       0.0000
   1460 C472        12.4387    15.0517    17.3696 C         1 MOL       0.0000
   1461 C473         0.6413     6.6484    23.4923 C         1 MOL       0.0000
   1462 C474         2.5909     4.7122    24.1049 C         1 MOL       0.0000
   1463 C475         4.9439    19.0412    13.6683 C         1 MOL       0.0000
   1464 C476        13.7550    14.7373    16.6031 C         1 MOL       0.0000
   1465 C477         7.1422    18.8520    13.6748 C         1 MOL       0.0000
   1466 C478        11.5532    14.9616    16.5733 C         1 MOL       0.0000
   1467 C479         2.7944     5.9213    23.7580 C         1 MOL       0.0000
   1468 C480         0.4463     5.4349    23.8201 C         1 MOL       0.0000
   1469 N75         12.1694     3.9884    20.7276 N         1 MOL       0.0000
   1470 N76         14.1555     4.0788    19.4091 N         1 MOL       0.0000
   1471 C481        12.1597     5.0121    19.6022 C         1 MOL       0.0000
   1472 C482        13.3964     5.0636    18.7666 C         1 MOL       0.0000
   1473 C483        15.9240     4.9898    19.5730 C         1 MOL       0.0000
   1474 C484        11.0817     3.7986    22.1596 C         1 MOL       0.0000
   1475 C485        13.3920     3.4515    20.6206 C         1 MOL       0.0000
   1476 C486        15.5449     3.9193    19.0681 C         1 MOL       0.0000
   1477 H427        11.3039     5.7039    19.6217 H         1 MOL       0.0000
   1478 H428        13.7756     5.7662    17.8638 H         1 MOL       0.0000
   1479 H429        15.6431     5.8705    18.8814 H         1 MOL       0.0000
   1480 H430        10.4605     4.7005    22.3775 H         1 MOL       0.0000
   1481 H431        15.5014     5.0888    20.8864 H         1 MOL       0.0000
   1482 H432        10.5819     3.1640    21.9137 H         1 MOL       0.0000
   1483 H433        16.9674     4.8005    19.2851 H         1 MOL       0.0000
   1484 H434         9.4574    18.4430    17.7036 H         1 MOL       0.0000
   1485 H435        11.4516     3.4455    23.2105 H         1 MOL       0.0000
   1486 H436        13.6983     2.6693    21.4276 H         1 MOL       0.0000
   1487 H437        15.8429     3.0377    19.7366 H         1 MOL       0.0000
   1488 N77         11.5037     7.7880    21.7718 N         1 MOL       0.0000
   1489 C487        -2.6201     8.2950    24.8670 C         1 MOL       0.0000
   1490 C488        12.2812    11.6172    20.0917 C         1 MOL       0.0000
   1491 O313        10.6757     6.4158    25.3223 O         1 MOL       0.0000
   1492 O314        14.2217     5.5268    23.5726 O         1 MOL       0.0000
   1493 O315        12.4791     8.4926    18.4402 O         1 MOL       0.0000
   1494 O316        14.1036     9.7412    17.9633 O         1 MOL       0.0000
   1495 F85         16.9608    14.7279    13.2044 F         1 MOL       0.0000
   1496 F86          9.8575    11.8978    23.3827 F         1 MOL       0.0000
   1497 F87         -1.9824     9.0778    25.2597 F         1 MOL       0.0000
   1498 F88         15.7785    12.6194    14.5370 F         1 MOL       0.0000
   1499 F89         11.1905    12.4090    20.5866 F         1 MOL       0.0000
   1500 F90         12.5139    11.7320    18.4482 F         1 MOL       0.0000
   1501 S29         12.0847     6.9676    22.9759 S         1 MOL       0.0000
   1502 S30         13.1874     9.0891    19.1242 S         1 MOL       0.0000
   1503 N78          4.9330     6.6627    19.3654 N         1 MOL       0.0000
   1504 N79          2.9581     6.5615    19.6266 N         1 MOL       0.0000
   1505 C489         6.0892     7.1687    19.1110 C         1 MOL       0.0000
   1506 C490         3.7855     7.3283    19.2725 C         1 MOL       0.0000
   1507 C491         4.8283     5.4368    19.7868 C         1 MOL       0.0000
   1508 C492         7.2708     6.4818    17.9372 C         1 MOL       0.0000
   1509 C493         3.5981     5.3720    19.9428 C         1 MOL       0.0000
   1510 C494         1.6695     6.9152    19.4262 C         1 MOL       0.0000
   1511 H438         6.2241     7.1420    20.3168 H         1 MOL       0.0000
   1512 H439         5.8618     8.1439    18.6600 H         1 MOL       0.0000
   1513 H440         3.5684     8.3057    18.8886 H         1 MOL       0.0000
   1514 H441         8.0888     6.8809    17.8803 H         1 MOL       0.0000
   1515 H442         5.6504     4.7211    19.8596 H         1 MOL       0.0000
   1516 H443         1.0074     6.5294    20.4973 H         1 MOL       0.0000
   1517 H444         1.3941     7.9293    19.3091 H         1 MOL       0.0000
   1518 H445         7.4906     5.4927    18.3367 H         1 MOL       0.0000
   1519 H446         3.1310     4.5899    20.2378 H         1 MOL       0.0000
   1520 H447         7.1837     6.5621    16.6924 H         1 MOL       0.0000
   1521 H448        17.6806     5.9899    18.4181 H         1 MOL       0.0000
   1522 N80          4.6112     7.3989    13.3690 N         1 MOL       0.0000
   1523 C495        11.8680    18.7085    16.2212 C         1 MOL       0.0000
   1524 C496        15.0525     1.7376    23.9979 C         1 MOL       0.0000
   1525 O317         3.2548     9.5573    14.1623 O         1 MOL       0.0000
   1526 O318        -0.8317    19.2934    16.4350 O         1 MOL       0.0000
   1527 O319         0.9326     2.2251    25.4492 O         1 MOL       0.0000
   1528 O320         0.7731    20.2683    14.2388 O         1 MOL       0.0000
   1529 F91         10.7731    18.1214    16.8552 F         1 MOL       0.0000
   1530 F92         13.8473     1.6912    24.2094 F         1 MOL       0.0000
   1531 F93          8.5471    11.6950    25.5289 F         1 MOL       0.0000
   1532 F94         12.8469    17.7111    15.5529 F         1 MOL       0.0000
   1533 F95          0.0801     4.0729    23.6837 F         1 MOL       0.0000
   1534 F96         10.4520    14.1710    23.0814 F         1 MOL       0.0000
   1535 S31         -0.3294     1.8612    26.0038 S         1 MOL       0.0000
   1536 S32         -0.5021    19.9313    14.7722 S         1 MOL       0.0000
@<TRIPOS>BOND
     1     1    78 1
     2     1    96 1
     3     1    98 1
     4     1    80 1
     5     1   180 1
     6     2    79 1
     7     2    77 1
     8     2    95 1
     9     2   101 1
    10     2    97 1
    11     3    67 1
    12     3   410 1
    13     3     6 1
    14     3   469 1
    15    67   469 1
    16     3   450 1
    17    67   450 1
    18     3    23 1
    19     3    35 1
    20     3    83 1
    21     3    90 1
    22    67    73 1
    23     3    50 1
    24     3    56 1
    25     3    76 1
    26     4    75 1
    27     5    92 1
    28     4    36 1
    29     4    74 1
    30     5    74 1
    31     5    90 1
    32     4    65 1
    33     4    94 1
    34    13    65 1
    35     4    86 1
    36     5    86 1
    37     4     5 1
    38     4    13 1
    39     4    25 1
    40     4    84 1
    41     4    99 1
    42     5    84 1
    43    13    84 1
    44    25    99 1
    45     5   102 1
    46     4     8 1
    47     6   376 1
    48     6    67 1
    49     6   469 1
    50     6   667 1
    51   604   644 1
    52     6    89 1
    53     6    23 1
    54     6    83 1
    55     6    73 1
    56     7   526 1
    57     7   385 1
    58     7   462 1
    59     7   570 1
    60    82   385 1
    61   464   570 1
    62   564   570 1
    63     7   418 1
    64     7    82 1
    65     7   100 1
    66     7   464 1
    67     7   564 1
    68   100   190 1
    69   100  1178 1
    70   464   564 1
    71     7    88 1
    72     7   456 1
    73     7   771 1
    74   100   771 1
    75   190   771 1
    76     8    53 1
    77     8    99 1
    78     8    81 1
    79     8    87 1
    80   252   346 1
    81   252  1336 1
    82     9   252 1
    83  1271  1273 1
    84    55    97 1
    85    55   112 1
    86    10    59 1
    87   514   525 1
    88   514   515 1
    89    12    61 1
    90    14    64 1
    91    14   156 1
    92    58   860 1
    93   783   870 1
    94    15   102 1
    95    16   101 1
    96    50   450 1
    97    76   450 1
    98    56    90 1
    99    76    90 1
   100    39    43 1
   101    17    46 1
   102    17    56 1
   103    39    46 1
   104    46    50 1
   105    46    56 1
   106    50    56 1
   107    50    76 1
   108    56    76 1
   109    18    45 1
   110    40    45 1
   111    40    75 1
   112   130   138 1
   113   130   141 1
   114    19   125 1
   115    19   130 1
   116   125   130 1
   117   125   131 1
   118   130   131 1
   119   131   142 1
   120    37   233 1
   121    47   233 1
   122    20    47 1
   123    37    47 1
   124    42    48 1
   125    42   127 1
   126    21   126 1
   127    21   132 1
   128    42   126 1
   129    42   132 1
   130   129   132 1
   131   129   137 1
   132    21    42 1
   133    21   128 1
   134    42   128 1
   135    42   134 1
   136   128   134 1
   137   129   135 1
   138   129   139 1
   139   177   934 1
   140    22    44 1
   141    44   152 1
   142    44   808 1
   143   808   813 1
   144    44   804 1
   145   808   843 1
   146    23    67 1
   147    35    67 1
   148    35   450 1
   149    36    40 1
   150    36    75 1
   151    23    35 1
   152    36    74 1
   153    35    43 1
   154    35    73 1
   155    35    39 1
   156    35    76 1
   157    48   127 1
   158   127   133 1
   159    48   126 1
   160    48   128 1
   161   127   128 1
   162    27    68 1
   163    63    68 1
   164    91   966 1
   165   966  1429 1
   166    28    68 1
   167   966  1049 1
   168   966  1033 1
   169    29    69 1
   170    41    69 1
   171    41  1381 1
   172    69  1374 1
   173    41  1391 1
   174  1381  1391 1
   175    30   261 1
   176    31    70 1
   177    32    70 1
   178    43    70 1
   179    33    71 1
   180    33    77 1
   181    71    77 1
   182    33    37 1
   183    38    48 1
   184    38   127 1
   185   126   127 1
   186    34    38 1
   187    34    72 1
   188    34   126 1
   189    34   132 1
   190    38   126 1
   191    38   132 1
   192    72   132 1
   193    72   143 1
   194   126   132 1
   195   132   143 1
   196    38    42 1
   197    38   128 1
   198   126   128 1
   199    49    55 1
   200    49   112 1
   201    49    59 1
   202   149   158 1
   203    57    95 1
   204    51    61 1
   205    51    57 1
   206   150   158 1
   207    52    64 1
   208    52    58 1
   209    64   156 1
   210    53    94 1
   211    53    87 1
   212    54    88 1
   213    54    93 1
   214   116   122 1
   215   120   122 1
   216    54   116 1
   217   116   120 1
   218    60   154 1
   219    60  1353 1
   220    66    85 1
   221    78   141 1
   222    78   131 1
   223    78   142 1
   224    80   186 1
   225   180   186 1
   226    80   180 1
   227   456   526 1
   228   405   426 1
   229   405   512 1
   230   456   515 1
   231   510   511 1
   232   510   512 1
   233   510   515 1
   234   513   521 1
   235   140   185 1
   236   140   516 1
   237   405   510 1
   238   405   516 1
   239   456   516 1
   240   456   527 1
   241   510   516 1
   242   513   516 1
   243   513   519 1
   244   516   527 1
   245   513   523 1
   246   105   311 1
   247   115   311 1
   248   115   313 1
   249   311   313 1
   250   146   155 1
   251    93   771 1
   252   146   156 1
   253   103   118 1
   254   104   120 1
   255   114   189 1
   256   106   123 1
   257   109   114 1
   258   110   117 1
   259   113   117 1
   260   113   123 1
   261   114   118 1
   262   114   124 1
   263   117   124 1
   264   118   123 1
   265   107   124 1
   266   108   122 1
   267   111   115 1
   268   119  1459 1
   269  1455  1459 1
   270   119   121 1
   271   121  1459 1
   272   875   892 1
   273   144   157 1
   274   145   153 1
   275   160   166 1
   276   165   175 1
   277   160   162 1
   278   160   163 1
   279   160   165 1
   280   163   165 1
   281   161   168 1
   282   161   167 1
   283   161   164 1
   284   164   170 1
   285   164   176 1
   286   166   172 1
   287   166   173 1
   288   178  1535 1
   289   179   185 1
   290   179   188 1
   291   950   960 1
   292   952   960 1
   293   181  1535 1
   294   182   192 1
   295   183   191 1
   296   191   370 1
   297   191   373 1
   298   503   505 1
   299   184   192 1
   300   184  1350 1
   301   475  1350 1
   302  1350  1411 1
   303  1350  1427 1
   304  1350  1433 1
   305  1350  1367 1
   306  1350  1417 1
   307   340  1155 1
   308   193   288 1
   309   193   290 1
   310   193  1197 1
   311   193  1297 1
   312   193  1305 1
   313  1192  1197 1
   314   193   270 1
   315   193  1188 1
   316   193  1192 1
   317   193  1227 1
   318   340  1235 1
   319   340  1236 1
   320   378  1227 1
   321   406   428 1
   322   428  1188 1
   323   428  1192 1
   324  1067  1236 1
   325  1165  1236 1
   326  1188  1192 1
   327  1188  1226 1
   328  1188  1227 1
   329  1192  1227 1
   330  1067  1084 1
   331   340  1157 1
   332   193   272 1
   333   193   372 1
   334   193  1156 1
   335   193  1246 1
   336   378  1156 1
   337  1165  1217 1
   338   200   245 1
   339   200   279 1
   340   200   395 1
   341   200   263 1
   342   194   200 1
   343   200   291 1
   344   217   291 1
   345   194   273 1
   346   194   287 1
   347   200   273 1
   348   194   293 1
   349   194   271 1
   350   194   289 1
   351   200   271 1
   352   194   269 1
   353   194   391 1
   354   195   602 1
   355   195   275 1
   356   195   198 1
   357   227   265 1
   358   259   265 1
   359   195   215 1
   360   195   227 1
   361   195   242 1
   362   195   259 1
   363   195   268 1
   364   195   642 1
   365   195   661 1
   366   215   227 1
   367   215   259 1
   368   227   259 1
   369   227   268 1
   370   227   642 1
   371   242   268 1
   372   242   642 1
   373   259   642 1
   374   259   661 1
   375   268   642 1
   376   642   661 1
   377   195   248 1
   378   195   282 1
   379   227   231 1
   380   227   235 1
   381   242   248 1
   382   268   282 1
   383   228   232 1
   384   196   205 1
   385   196   228 1
   386   196   257 1
   387   196   266 1
   388   196   267 1
   389   196   276 1
   390   205   257 1
   391   205   276 1
   392   228   266 1
   393   228   267 1
   394   196   197 1
   395   196   278 1
   396   196   200 1
   397   196   217 1
   398   196   286 1
   399   196   291 1
   400   238   242 1
   401   248   268 1
   402   197   266 1
   403   197   276 1
   404   235   262 1
   405   197   284 1
   406   197   294 1
   407   197   282 1
   408   231   235 1
   409   231   238 1
   410   238   248 1
   411   248   282 1
   412   197   278 1
   413   198   275 1
   414   198   265 1
   415   198   281 1
   416   198   215 1
   417   198   259 1
   418   198   661 1
   419   199   274 1
   420   199   577 1
   421   199   656 1
   422   199   756 1
   423   199   762 1
   424   199   610 1
   425   199   648 1
   426   199   718 1
   427   199   654 1
   428   201  1158 1
   429   339  1158 1
   430   339  1155 1
   431   339  1235 1
   432   241   247 1
   433   241   304 1
   434   202   251 1
   435   241   251 1
   436   241   492 1
   437   251   492 1
   438   203   254 1
   439   249   287 1
   440   243   253 1
   441   243   249 1
   442   204   253 1
   443   206   348 1
   444   338   348 1
   445   338   347 1
   446   214   236 1
   447   206   256 1
   448   206  1334 1
   449   207   294 1
   450   208   293 1
   451   209   238 1
   452   209   248 1
   453   210   237 1
   454   337   390 1
   455   337   419 1
   456   210   345 1
   457   337   345 1
   458   337   451 1
   459   337   457 1
   460   337   889 1
   461   451   457 1
   462   451   889 1
   463   211   317 1
   464   211   322 1
   465   226   270 1
   466   226   317 1
   467   226   323 1
   468   270   323 1
   469   270   333 1
   470   317   322 1
   471   317   323 1
   472   317   530 1
   473   317   539 1
   474   322   323 1
   475   322   328 1
   476   322   330 1
   477   322   333 1
   478   322   530 1
   479   322   539 1
   480   323   530 1
   481   328   539 1
   482   330   530 1
   483   530   539 1
   484   333   428 1
   485   211   240 1
   486   226   230 1
   487   317   319 1
   488   317   398 1
   489   317   540 1
   490   530   540 1
   491   226  1157 1
   492   226   264 1
   493   226   334 1
   494   226  1238 1
   495   270   334 1
   496   323   334 1
   497   226   318 1
   498   226   324 1
   499   317   318 1
   500   323   324 1
   501   212   239 1
   502   229   239 1
   503   212   391 1
   504   229   391 1
   505   239   391 1
   506   318   323 1
   507   213   234 1
   508   213   320 1
   509   213   442 1
   510   318   319 1
   511   318   320 1
   512   318   398 1
   513   318   442 1
   514   318  1244 1
   515   321  1244 1
   516   324  1244 1
   517   321   329 1
   518   321  1157 1
   519   331  1157 1
   520   324   335 1
   521   213   318 1
   522   213   324 1
   523   318   324 1
   524   321   324 1
   525   321   327 1
   526   321   331 1
   527   321  1167 1
   528   321  1254 1
   529   327  1254 1
   530   331  1254 1
   531   369  1254 1
   532  1167  1254 1
   533   369  1126 1
   534   437   497 1
   535   795   836 1
   536   218   392 1
   537   218   437 1
   538   218   471 1
   539   218   478 1
   540   258   277 1
   541   258   392 1
   542   277   392 1
   543   277   471 1
   544   392   437 1
   545   392   471 1
   546   392   483 1
   547   437   471 1
   548   437   478 1
   549   437   795 1
   550   258   386 1
   551   392   455 1
   552   392   465 1
   553   392   828 1
   554   258   463 1
   555   392   463 1
   556   219   260 1
   557   220   260 1
   558   225   263 1
   559   225   229 1
   560   225   466 1
   561   225   269 1
   562   225   391 1
   563   263   269 1
   564   223   262 1
   565   224   262 1
   566   303   307 1
   567   230   317 1
   568   230   323 1
   569   230   530 1
   570   240   317 1
   571   240   323 1
   572   240   530 1
   573   240   539 1
   574   319   530 1
   575   234   448 1
   576   319   448 1
   577   320   448 1
   578   398   448 1
   579   230   234 1
   580   230   240 1
   581   230   319 1
   582   230   320 1
   583   230   398 1
   584   230   540 1
   585   230  1244 1
   586   234   240 1
   587   234   319 1
   588   234   320 1
   589   234   326 1
   590   234   442 1
   591   234  1244 1
   592   240   319 1
   593   240   320 1
   594   240   398 1
   595   240   540 1
   596   319   320 1
   597   319   325 1
   598   319   398 1
   599   319   442 1
   600   319   540 1
   601   320   326 1
   602   320   398 1
   603   320   442 1
   604   320   540 1
   605   320  1244 1
   606   326   442 1
   607   398   540 1
   608   442  1244 1
   609   500   506 1
   610   488   504 1
   611   500   504 1
   612   234   436 1
   613   320   436 1
   614   326   436 1
   615   230   318 1
   616   230   324 1
   617   234   318 1
   618   234   324 1
   619   240   318 1
   620   232   237 1
   621   232   267 1
   622   236   344 1
   623   236  1000 1
   624   996  1000 1
   625   996  1035 1
   626   236   996 1
   627   996  1034 1
   628   244  1336 1
   629   346  1336 1
   630   244   250 1
   631   302   419 1
   632   302   457 1
   633   316   809 1
   634   316   837 1
   635   302   423 1
   636   316   468 1
   637   245   279 1
   638   245   305 1
   639   245   427 1
   640   245   446 1
   641   279   395 1
   642   279   446 1
   643   302   309 1
   644   302   427 1
   645   305   309 1
   646   305   315 1
   647   305   415 1
   648   305   427 1
   649   305   446 1
   650   305   454 1
   651   309   316 1
   652   309   416 1
   653   309   427 1
   654   309   454 1
   655   315   415 1
   656   315   446 1
   657   315   454 1
   658   316   454 1
   659   395   446 1
   660   415   454 1
   661   416   454 1
   662   427   454 1
   663   245   286 1
   664   308   314 1
   665   246   280 1
   666   246   285 1
   667   246   308 1
   668   285   963 1
   669   308   312 1
   670   247   289 1
   671   247   304 1
   672   247   524 1
   673   312   314 1
   674   250  1052 1
   675   296   312 1
   676   255   260 1
   677   256   348 1
   678   256  1334 1
   679   256  1344 1
   680   264   323 1
   681   264   334 1
   682   264   335 1
   683   264  1238 1
   684   264   324 1
   685   391   466 1
   686   269   391 1
   687   272   378 1
   688   272  1188 1
   689   272  1227 1
   690   372   378 1
   691   372  1227 1
   692  1149  1165 1
   693  1149  1236 1
   694  1156  1165 1
   695  1156  1188 1
   696  1156  1226 1
   697  1156  1227 1
   698  1156  1236 1
   699  1156  1157 1
   700  1160  1205 1
   701  1160  1239 1
   702  1156  1238 1
   703   272   372 1
   704   272  1156 1
   705   372  1156 1
   706   372  1246 1
   707  1149  1156 1
   708  1149  1217 1
   709  1156  1160 1
   710  1156  1177 1
   711  1156  1217 1
   712  1156  1246 1
   713  1156  1251 1
   714  1160  1251 1
   715  1177  1251 1
   716  1160  1233 1
   717  1160  1223 1
   718  1160  1231 1
   719   274   577 1
   720   440   460 1
   721   430   434 1
   722   358   486 1
   723   358   364 1
   724   358   389 1
   725   440   474 1
   726   358   365 1
   727   401   430 1
   728   401   440 1
   729   430   440 1
   730   283   453 1
   731   528   541 1
   732   290  1170 1
   733   290  1197 1
   734   727  1297 1
   735  1170  1197 1
   736  1170  1305 1
   737  1297  1305 1
   738   290  1192 1
   739   292   382 1
   740   292  1370 1
   741   292   963 1
   742   375   449 1
   743   375   383 1
   744   310   315 1
   745   820   832 1
   746   375   392 1
   747   386   392 1
   748   295   310 1
   749   295   386 1
   750   295   465 1
   751   310   465 1
   752   386   465 1
   753   386   828 1
   754   417   455 1
   755   417   828 1
   756   455   828 1
   757   828   922 1
   758   820   826 1
   759   386   485 1
   760   386   479 1
   761   417   421 1
   762   386   463 1
   763   386   461 1
   764   417   461 1
   765   455   461 1
   766   386   481 1
   767   298   315 1
   768   298   446 1
   769   435   441 1
   770   435   919 1
   771   441   479 1
   772   441   919 1
   773   479   919 1
   774   435   445 1
   775   299   809 1
   776   299   837 1
   777   468   809 1
   778   468   837 1
   779   389   476 1
   780   389   486 1
   781   299   468 1
   782   364   389 1
   783   389   458 1
   784   389   468 1
   785   389   474 1
   786   299   316 1
   787   423   427 1
   788   423   430 1
   789   389   470 1
   790   300   314 1
   791   301   449 1
   792   301   809 1
   793   306   381 1
   794   306   809 1
   795   383   449 1
   796   301   306 1
   797   489   695 1
   798   495   499 1
   799   499   695 1
   800   499   890 1
   801   695   890 1
   802   499   697 1
   803   695   697 1
   804   306   316 1
   805   301   392 1
   806   306   310 1
   807  1198  1202 1
   808  1175  1219 1
   809  1187  1219 1
   810  1157  1226 1
   811  1157  1236 1
   812  1187  1225 1
   813  1157  1244 1
   814   329  1157 1
   815  1157  1242 1
   816  1169  1198 1
   817  1169  1208 1
   818  1175  1187 1
   819  1187  1191 1
   820  1187  1228 1
   821  1191  1198 1
   822  1198  1208 1
   823  1208  1228 1
   824  1208  1242 1
   825  1228  1242 1
   826  1187  1195 1
   827  1191  1195 1
   828  1157  1238 1
   829   329  1254 1
   830  1157  1254 1
   831   332   377 1
   832   753  1510 1
   833  1155  1158 1
   834   336   477 1
   835   336   349 1
   836   336  1155 1
   837   349   484 1
   838   349  1155 1
   839   484  1155 1
   840  1155  1202 1
   841  1155  1219 1
   842   349  1235 1
   843  1155  1235 1
   844   349  1228 1
   845   349  1242 1
   846  1155  1175 1
   847  1155  1187 1
   848  1155  1208 1
   849  1155  1228 1
   850  1155  1242 1
   851  1202  1208 1
   852  1202  1228 1
   853   341   438 1
   854   341   500 1
   855   504   506 1
   856   341   350 1
   857   342   350 1
   858   342  1334 1
   859  1334  1344 1
   860   786   813 1
   861   343   913 1
   862   786   921 1
   863   563   569 1
   864   348  1334 1
   865   563   572 1
   866   352   358 1
   867   351   355 1
   868   352   355 1
   869   352   357 1
   870   351   352 1
   871   351   353 1
   872   351   354 1
   873   352   354 1
   874   353   354 1
   875   353   360 1
   876   354   361 1
   877   353   359 1
   878   351   356 1
   879   353   356 1
   880   409   483 1
   881   355   357 1
   882   355   363 1
   883   355   485 1
   884   357   367 1
   885   363   485 1
   886   356   362 1
   887   356   366 1
   888   356   368 1
   889   371   377 1
   890   371   380 1
   891  1142  1152 1
   892   374   384 1
   893   376   384 1
   894   402   429 1
   895   420   424 1
   896   402   537 1
   897   381   388 1
   898   381   397 1
   899   381   449 1
   900   381   809 1
   901   381   837 1
   902   388   397 1
   903   388   420 1
   904   388   449 1
   905   388   459 1
   906   388   809 1
   907   388   837 1
   908   397   449 1
   909   397   809 1
   910   397   837 1
   911   420   459 1
   912   449   797 1
   913   449   809 1
   914   449   837 1
   915   797   837 1
   916   809   837 1
   917   381   468 1
   918   388   389 1
   919   388   458 1
   920   388   468 1
   921   397   468 1
   922   420   458 1
   923   388   392 1
   924   388   478 1
   925   388   483 1
   926   388   470 1
   927   388   409 1
   928   382   963 1
   929   462   526 1
   930   385   462 1
   931   385   480 1
   932   385   482 1
   933   462   525 1
   934   462   515 1
   935   385   464 1
   936   385   564 1
   937   387   887 1
   938   387   390 1
   939   387   407 1
   940   387   419 1
   941   387   460 1
   942   387   467 1
   943   407   419 1
   944   419   460 1
   945   387   451 1
   946   387   889 1
   947   407   451 1
   948   419   451 1
   949   419   457 1
   950   419   889 1
   951   387   434 1
   952   387   474 1
   953   419   423 1
   954   460   474 1
   955   419   427 1
   956   387   440 1
   957   760   768 1
   958   390   473 1
   959   390   760 1
   960   390   407 1
   961   390   467 1
   962   390   451 1
   963   390   457 1
   964   394   443 1
   965   396   445 1
   966   399   486 1
   967   400   485 1
   968   439   481 1
   969   439   496 1
   970   403   514 1
   971   418   526 1
   972   509   514 1
   973   515   526 1
   974   418   462 1
   975   403   432 1
   976   403   509 1
   977   418   422 1
   978   418   509 1
   979   418   515 1
   980   422   426 1
   981   422   432 1
   982   422   509 1
   983   422   511 1
   984   422   512 1
   985   422   515 1
   986   426   432 1
   987   426   511 1
   988   426   512 1
   989   432   509 1
   990   432   511 1
   991   432   512 1
   992   432   515 1
   993   509   511 1
   994   509   515 1
   995   511   512 1
   996   511   517 1
   997   426   518 1
   998   512   518 1
   999   418   456 1
  1000   418   510 1
  1001   418   516 1
  1002   422   510 1
  1003   422   516 1
  1004   426   510 1
  1005   426   516 1
  1006   432   510 1
  1007   509   510 1
  1008   515   516 1
  1009   461   828 1
  1010   461   922 1
  1011   404   431 1
  1012   412   452 1
  1013   447   452 1
  1014   413   453 1
  1015   832   924 1
  1016   414   645 1
  1017   605   645 1
  1018   605   917 1
  1019   605   918 1
  1020   617   645 1
  1021   617   918 1
  1022   645   917 1
  1023   645   918 1
  1024   605   926 1
  1025   617   926 1
  1026   645   926 1
  1027   917   926 1
  1028   918   926 1
  1029   421   617 1
  1030   431   617 1
  1031   421   431 1
  1032   424   429 1
  1033   424   459 1
  1034   433   439 1
  1035   433   496 1
  1036   433   443 1
  1037   434   460 1
  1038   434   440 1
  1039   436   448 1
  1040   436   442 1
  1041   444   538 1
  1042   438   472 1
  1043   438   477 1
  1044   477  1155 1
  1045   438   500 1
  1046   448   540 1
  1047   450   469 1
  1048   487   502 1
  1049   490   507 1
  1050   491   859 1
  1051   498   573 1
  1052   501   796 1
  1053   508   859 1
  1054   491   508 1
  1055   493   498 1
  1056   494   501 1
  1057   494   836 1
  1058   497   501 1
  1059   497   507 1
  1060   497   831 1
  1061   497   836 1
  1062   498   502 1
  1063   498   508 1
  1064   501   508 1
  1065   501   831 1
  1066   501   836 1
  1067   502   507 1
  1068   508   836 1
  1069   831   836 1
  1070   497   795 1
  1071   501   795 1
  1072   533   542 1
  1073   534   542 1
  1074  1312  1317 1
  1075  1317  1327 1
  1076  1312  1314 1
  1077  1312  1318 1
  1078  1312  1315 1
  1079   529   537 1
  1080   544   550 1
  1081   549   559 1
  1082   543   544 1
  1083   543   545 1
  1084   543   546 1
  1085   543   547 1
  1086   544   546 1
  1087   544   547 1
  1088   544   549 1
  1089   545   546 1
  1090   545   552 1
  1091   546   553 1
  1092   547   549 1
  1093   547   555 1
  1094   545   551 1
  1095   543   548 1
  1096   545   548 1
  1097   548   554 1
  1098   548   558 1
  1099   548   560 1
  1100   550   556 1
  1101   550   557 1
  1102  1311  1312 1
  1103  1318  1324 1
  1104   561  1318 1
  1105  1311  1314 1
  1106  1314  1321 1
  1107  1318  1325 1
  1108  1311  1315 1
  1109  1311  1313 1
  1110  1311  1316 1
  1111   566   576 1
  1112   567   575 1
  1113   575   757 1
  1114   757   942 1
  1115   575   754 1
  1116   568   576 1
  1117   573   859 1
  1118   796   836 1
  1119   577   674 1
  1120   577   656 1
  1121   577   672 1
  1122   577   756 1
  1123   656   756 1
  1124   656   762 1
  1125   756   762 1
  1126   577   654 1
  1127   578   584 1
  1128   578   657 1
  1129   578   671 1
  1130   578   915 1
  1131   578  1020 1
  1132   578   655 1
  1133   578   673 1
  1134   578   916 1
  1135   631   673 1
  1136   631   688 1
  1137   631   916 1
  1138   673   916 1
  1139   578   653 1
  1140   578   777 1
  1141   578   677 1
  1142   578   925 1
  1143   743   769 1
  1144   743   864 1
  1145   579   873 1
  1146   579  1079 1
  1147   883  1079 1
  1148   579   599 1
  1149   579   659 1
  1150   579   582 1
  1151   611   649 1
  1152   643   649 1
  1153   579   611 1
  1154   579   626 1
  1155   579   643 1
  1156   579   652 1
  1157   579   879 1
  1158   579   883 1
  1159   611   643 1
  1160   611   652 1
  1161   626   652 1
  1162   626   883 1
  1163   643   883 1
  1164   652   879 1
  1165   652   883 1
  1166   879   883 1
  1167   579  1081 1
  1168   611  1081 1
  1169   643  1081 1
  1170   883  1081 1
  1171   579   776 1
  1172   579   632 1
  1173   579   666 1
  1174   611   615 1
  1175   626   632 1
  1176   652   666 1
  1177   611   619 1
  1178   616   621 1
  1179   580   589 1
  1180   580   612 1
  1181   580   641 1
  1182   580   650 1
  1183   580   651 1
  1184   580   660 1
  1185   580   798 1
  1186   580   805 1
  1187   580  1001 1
  1188   580  1029 1
  1189   589   641 1
  1190   589   660 1
  1191   589  1001 1
  1192   589  1029 1
  1193   612   616 1
  1194   612   650 1
  1195   612   651 1
  1196   616   651 1
  1197   641   989 1
  1198   641  1001 1
  1199   641  1029 1
  1200   660   798 1
  1201   660   805 1
  1202   660  1001 1
  1203   660  1029 1
  1204   798  1029 1
  1205   805  1001 1
  1206   989  1029 1
  1207  1001  1029 1
  1208   580   581 1
  1209   660   801 1
  1210   580   670 1
  1211   580   662 1
  1212   580   584 1
  1213   580   601 1
  1214   580   675 1
  1215   805   815 1
  1216   622   626 1
  1217   632   652 1
  1218   581   650 1
  1219   581   660 1
  1220   581   798 1
  1221   801   805 1
  1222   581   668 1
  1223   581   678 1
  1224   581   770 1
  1225   581   776 1
  1226   581   855 1
  1227   593   770 1
  1228   622   770 1
  1229   632   770 1
  1230   632   776 1
  1231   666   776 1
  1232   581   666 1
  1233   581   801 1
  1234   581   839 1
  1235   581   845 1
  1236   593   622 1
  1237   593   632 1
  1238   593   849 1
  1239   615   622 1
  1240   622   632 1
  1241   622   849 1
  1242   632   666 1
  1243   632   849 1
  1244   666   839 1
  1245   801   839 1
  1246   801   845 1
  1247   839   845 1
  1248   615   619 1
  1249   622   863 1
  1250   581   662 1
  1251   582   599 1
  1252   582   659 1
  1253   582   649 1
  1254   582   665 1
  1255   582   643 1
  1256   676   766 1
  1257  1347  1350 1
  1258   583   658 1
  1259   583   676 1
  1260   583  1347 1
  1261   676  1347 1
  1262  1347  1411 1
  1263  1347  1427 1
  1264  1347  1367 1
  1265  1347  1379 1
  1266  1347  1394 1
  1267  1347  1400 1
  1268  1347  1420 1
  1269  1347  1434 1
  1270   601   805 1
  1271   815  1001 1
  1272   584   629 1
  1273   584   663 1
  1274   584   647 1
  1275   584   675 1
  1276   601   675 1
  1277   601   815 1
  1278   584   657 1
  1279   584   915 1
  1280   584  1020 1
  1281   584   655 1
  1282   584   777 1
  1283   625   631 1
  1284   625   688 1
  1285   846   909 1
  1286   586   769 1
  1287   586   954 1
  1288   635   769 1
  1289   635   954 1
  1290   709   769 1
  1291   848   954 1
  1292   948   954 1
  1293   625   802 1
  1294   846   899 1
  1295   846   910 1
  1296   586   635 1
  1297   586   848 1
  1298   586   948 1
  1299   625   635 1
  1300   625   846 1
  1301   635   846 1
  1302   635   848 1
  1303   635   948 1
  1304   709   948 1
  1305   848   948 1
  1306   725   734 1
  1307   587   638 1
  1308   627  1111 1
  1309   633   671 1
  1310   633  1111 1
  1311   627   633 1
  1312   588   637 1
  1313   766  1347 1
  1314   722   731 1
  1315   590   640 1
  1316   590   732 1
  1317   634  1436 1
  1318   722   732 1
  1319   591   678 1
  1320   778   827 1
  1321   592   677 1
  1322   677   912 1
  1323   677   925 1
  1324   912   925 1
  1325   594   621 1
  1326   594   729 1
  1327   721   729 1
  1328   721  1273 1
  1329   595   706 1
  1330   701   706 1
  1331   703   709 1
  1332   595   624 1
  1333   595   701 1
  1334   610   614 1
  1335   610   648 1
  1336   610   701 1
  1337   610   702 1
  1338   610   707 1
  1339   610   708 1
  1340   610   718 1
  1341   614   624 1
  1342   614   701 1
  1343   614   702 1
  1344   614   703 1
  1345   614   707 1
  1346   614   708 1
  1347   624   701 1
  1348   624   702 1
  1349   624   703 1
  1350   624   707 1
  1351   648   707 1
  1352   648   708 1
  1353   648   718 1
  1354   701   702 1
  1355   701   703 1
  1356   701   707 1
  1357   702   703 1
  1358   702   707 1
  1359   702   708 1
  1360   707   708 1
  1361   707   718 1
  1362   610   654 1
  1363   614   618 1
  1364   614   704 1
  1365   624   704 1
  1366   702   704 1
  1367   703   704 1
  1368   648   719 1
  1369   708   719 1
  1370   609   647 1
  1371   609  1020 1
  1372   596   623 1
  1373   609   613 1
  1374   613   623 1
  1375   609   653 1
  1376   597   702 1
  1377   597   708 1
  1378   618   624 1
  1379   618   702 1
  1380   618   703 1
  1381   618   708 1
  1382   705   708 1
  1383   705   713 1
  1384   597   618 1
  1385   597   704 1
  1386   618   704 1
  1387   618   710 1
  1388   704   710 1
  1389   705   711 1
  1390   620   728 1
  1391  1384  1389 1
  1392   598   620 1
  1393   620  1380 1
  1394   620  1384 1
  1395  1380  1384 1
  1396  1380  1418 1
  1397  1380  1419 1
  1398  1384  1419 1
  1399   599   611 1
  1400   599   643 1
  1401   769   866 1
  1402   600   769 1
  1403   600   954 1
  1404   706   712 1
  1405   706   714 1
  1406   769   864 1
  1407   706   717 1
  1408   600   948 1
  1409   769   846 1
  1410   769   848 1
  1411   769   948 1
  1412   706   707 1
  1413   765  1051 1
  1414   765  1221 1
  1415  1193  1221 1
  1416   765  1193 1
  1417   806   893 1
  1418   806   816 1
  1419   806   895 1
  1420   810   816 1
  1421   810   895 1
  1422   894   895 1
  1423   639   802 1
  1424   639   840 1
  1425   639   899 1
  1426   639   911 1
  1427   806   899 1
  1428   894   899 1
  1429   900   911 1
  1430   603   644 1
  1431   639   644 1
  1432   639   789 1
  1433   639   806 1
  1434   639   810 1
  1435   639   894 1
  1436   639   896 1
  1437   639   900 1
  1438   644   789 1
  1439   644   810 1
  1440   644   894 1
  1441   644   896 1
  1442   789   810 1
  1443   789   894 1
  1444   789   896 1
  1445   789   900 1
  1446   806   810 1
  1447   806   894 1
  1448   806   896 1
  1449   806   900 1
  1450   810   894 1
  1451   810   896 1
  1452   810   900 1
  1453   810   902 1
  1454   894   896 1
  1455   894   900 1
  1456   896   902 1
  1457   897   900 1
  1458   897   903 1
  1459   897   905 1
  1460   897   907 1
  1461  1110  1118 1
  1462  1012  1024 1
  1463   647  1020 1
  1464   647   653 1
  1465   687   691 1
  1466   607   646 1
  1467   608   646 1
  1468  1068  1082 1
  1469   619   646 1
  1470   780   829 1
  1471   975  1062 1
  1472   726   734 1
  1473   628   640 1
  1474   628   634 1
  1475   640   732 1
  1476   693   988 1
  1477   629   663 1
  1478   629   670 1
  1479   629   689 1
  1480   629   987 1
  1481   686   693 1
  1482   686  1028 1
  1483   689   693 1
  1484   689   699 1
  1485   689   987 1
  1486   689  1023 1
  1487   689  1028 1
  1488   693   987 1
  1489   693  1023 1
  1490   693  1028 1
  1491   987  1028 1
  1492  1023  1028 1
  1493   630   669 1
  1494   692   698 1
  1495   630   664 1
  1496   630   692 1
  1497   692   696 1
  1498   653  1020 1
  1499   653  1114 1
  1500   777  1020 1
  1501   653   777 1
  1502   654   717 1
  1503   654   707 1
  1504   654   718 1
  1505   657   915 1
  1506   671   915 1
  1507   671  1111 1
  1508  1020  1114 1
  1509   871   886 1
  1510   821   862 1
  1511   821   881 1
  1512   668   776 1
  1513   668   821 1
  1514   668   855 1
  1515   678   770 1
  1516   678   776 1
  1517   770   776 1
  1518   770   847 1
  1519   776   821 1
  1520   776   847 1
  1521   776   855 1
  1522   776   867 1
  1523   821   855 1
  1524   770   845 1
  1525   770   849 1
  1526   776   839 1
  1527   776   849 1
  1528   770   869 1
  1529   770   863 1
  1530   770   865 1
  1531   700  1051 1
  1532   700  1221 1
  1533   685  1193 1
  1534   690   765 1
  1535   690  1193 1
  1536   700  1193 1
  1537   679   694 1
  1538   685   690 1
  1539   690   694 1
  1540   690   700 1
  1541   696   698 1
  1542   680   696 1
  1543  1292  1337 1
  1544  1331  1337 1
  1545   691  1082 1
  1546  1331  1340 1
  1547   682   699 1
  1548   683  1051 1
  1549   683  1221 1
  1550  1051  1221 1
  1551   683  1193 1
  1552  1051  1193 1
  1553   683   700 1
  1554   782   924 1
  1555   782   832 1
  1556   684   698 1
  1557   822   856 1
  1558   697   890 1
  1559   876   890 1
  1560   884   890 1
  1561   888   890 1
  1562   697   884 1
  1563   697   888 1
  1564   822   884 1
  1565   872   888 1
  1566   884   888 1
  1567   822   861 1
  1568   812   920 1
  1569   790   812 1
  1570   716   761 1
  1571   720   733 1
  1572   735   736 1
  1573   735   739 1
  1574   735   737 1
  1575   735   738 1
  1576   737   738 1
  1577   737   744 1
  1578   737   898 1
  1579   737   906 1
  1580   738   745 1
  1581   744   898 1
  1582   744   906 1
  1583   787   893 1
  1584   787   898 1
  1585   893   898 1
  1586   898   904 1
  1587   898   906 1
  1588   737   743 1
  1589   898   909 1
  1590   787   816 1
  1591   893   895 1
  1592   735   740 1
  1593   737   740 1
  1594   893   899 1
  1595   898   899 1
  1596   893   894 1
  1597   736   742 1
  1598   736   739 1
  1599   736   741 1
  1600   739   741 1
  1601   739   747 1
  1602   736   738 1
  1603   802   893 1
  1604   740   746 1
  1605   740   750 1
  1606   740   752 1
  1607   802   840 1
  1608   802   899 1
  1609   802   910 1
  1610   840   899 1
  1611   840   910 1
  1612   840   911 1
  1613   899   910 1
  1614   802   846 1
  1615   802   806 1
  1616   802   894 1
  1617   802   900 1
  1618   840   900 1
  1619   899   900 1
  1620   742   748 1
  1621   988  1028 1
  1622   742   749 1
  1623   755   761 1
  1624   755   764 1
  1625   773   842 1
  1626   773   858 1
  1627   773   854 1
  1628   773   860 1
  1629   773   870 1
  1630   773   852 1
  1631   758   768 1
  1632   793   867 1
  1633   759   767 1
  1634  1216  1308 1
  1635   814   824 1
  1636   814   818 1
  1637   771  1178 1
  1638   771  1237 1
  1639  1218  1237 1
  1640   771   774 1
  1641   771   791 1
  1642   771   803 1
  1643   771   824 1
  1644   771   844 1
  1645   771   851 1
  1646   771   858 1
  1647   771  1218 1
  1648   791   803 1
  1649   803   807 1
  1650   803   844 1
  1651   803  1218 1
  1652   824   844 1
  1653   824   858 1
  1654   844   858 1
  1655   844  1218 1
  1656   771   835 1
  1657   791   835 1
  1658   803   835 1
  1659   803   841 1
  1660   771   818 1
  1661   803   811 1
  1662   807   811 1
  1663   807   814 1
  1664   804   808 1
  1665   772   842 1
  1666   804   842 1
  1667   772   781 1
  1668   772   804 1
  1669   772   833 1
  1670   772   843 1
  1671   772   862 1
  1672   781   833 1
  1673   804   843 1
  1674   772   854 1
  1675   772   773 1
  1676   772   793 1
  1677   772   852 1
  1678   781   852 1
  1679   772   776 1
  1680   772   867 1
  1681   774  1144 1
  1682   774  1237 1
  1683   774   857 1
  1684   774  1435 1
  1685   873  1079 1
  1686   774   791 1
  1687   774   851 1
  1688   774   835 1
  1689   774   841 1
  1690  1079  1081 1
  1691   775  1153 1
  1692   775  1232 1
  1693   775  1332 1
  1694   775  1338 1
  1695   775  1186 1
  1696   775  1294 1
  1697   775  1230 1
  1698   775   850 1
  1699   775   868 1
  1700   775   856 1
  1701   775  1224 1
  1702   779   830 1
  1703   799   838 1
  1704   811   838 1
  1705   784   869 1
  1706  1315  1317 1
  1707   785   824 1
  1708   818   824 1
  1709   818   844 1
  1710   818  1218 1
  1711  1315  1323 1
  1712   785   814 1
  1713   788   815 1
  1714   816   893 1
  1715   816   895 1
  1716   895   901 1
  1717   816   899 1
  1718   816   894 1
  1719   816   896 1
  1720   895   896 1
  1721   835  1237 1
  1722  1372  1412 1
  1723   835  1218 1
  1724   835   841 1
  1725   800   838 1
  1726   817   823 1
  1727   817   880 1
  1728   823   865 1
  1729   823   880 1
  1730   817   827 1
  1731   819   825 1
  1732   825   863 1
  1733   819   829 1
  1734   850  1153 1
  1735   868   958 1
  1736   959  1141 1
  1737   959  1138 1
  1738   951   959 1
  1739  1224  1283 1
  1740  1224  1294 1
  1741  1224  1284 1
  1742  1224  1295 1
  1743  1284  1295 1
  1744   882   957 1
  1745   874   891 1
  1746   881   885 1
  1747   881   891 1
  1748   882   886 1
  1749   882   892 1
  1750   885   892 1
  1751   886   891 1
  1752   877   882 1
  1753   913   921 1
  1754   878   885 1
  1755   887   889 1
  1756  1173  1278 1
  1757  1173  1194 1
  1758  1173  1280 1
  1759   908  1284 1
  1760  1173  1284 1
  1761   908   953 1
  1762   947   953 1
  1763   947   956 1
  1764   914   923 1
  1765   914   924 1
  1766   927   928 1
  1767   930   937 1
  1768   931   939 1
  1769   933   943 1
  1770   927   929 1
  1771   927   930 1
  1772   927   931 1
  1773   927   932 1
  1774   929   930 1
  1775   929   932 1
  1776   929   936 1
  1777   931   933 1
  1778   932   938 1
  1779   932   944 1
  1780   929   935 1
  1781   932   942 1
  1782   928   934 1
  1783   934   940 1
  1784   934   941 1
  1785   928   930 1
  1786   928   931 1
  1787   928   933 1
  1788   961  1058 1
  1789  1038  1101 1
  1790   961  1038 1
  1791   961  1040 1
  1792   961  1056 1
  1793   961  1140 1
  1794  1040  1140 1
  1795  1040  1146 1
  1796  1140  1146 1
  1797   962  1061 1
  1798   976  1061 1
  1799   962  1057 1
  1800   963  1370 1
  1801   963   983 1
  1802   963  1027 1
  1803   963  1043 1
  1804   995  1027 1
  1805   963   995 1
  1806   963  1010 1
  1807   963  1016 1
  1808   963  1036 1
  1809   963  1050 1
  1810   963  1410 1
  1811   977  1016 1
  1812   995  1036 1
  1813   995  1410 1
  1814  1010  1016 1
  1815  1010  1036 1
  1816  1010  1410 1
  1817  1016  1036 1
  1818  1016  1050 1
  1819  1036  1050 1
  1820  1036  1410 1
  1821   977  1006 1
  1822   995   999 1
  1823   964  1035 1
  1824   964   996 1
  1825   964  1034 1
  1826   964   968 1
  1827   964  1025 1
  1828   964  1054 1
  1829   964  1046 1
  1830   964  1059 1
  1831   965  1050 1
  1832   965  1044 1
  1833   973  1044 1
  1834   965  1052 1
  1835   965  1062 1
  1836  1345  1442 1
  1837  1422  1485 1
  1838  1345  1440 1
  1839   967  1378 1
  1840   967  1416 1
  1841   967  1486 1
  1842  1422  1475 1
  1843  1422  1486 1
  1844   967  1042 1
  1845   967  1345 1
  1846   967  1422 1
  1847   967  1424 1
  1848   967  1524 1
  1849   967  1530 1
  1850  1042  1345 1
  1851  1345  1422 1
  1852  1345  1424 1
  1853  1345  1524 1
  1854  1424  1524 1
  1855  1424  1530 1
  1856  1524  1530 1
  1857   967  1048 1
  1858   967  1060 1
  1859  1070  1225 1
  1860  1073  1183 1
  1861  1073  1222 1
  1862  1077  1084 1
  1863  1077  1184 1
  1864  1077  1222 1
  1865  1195  1222 1
  1866  1070  1187 1
  1867  1070  1191 1
  1868   968  1013 1
  1869   968  1047 1
  1870  1013  1047 1
  1871  1013  1054 1
  1872  1013  1073 1
  1873  1013  1195 1
  1874  1070  1077 1
  1875  1070  1195 1
  1876  1073  1077 1
  1877  1073  1195 1
  1878  1077  1195 1
  1879   968  1059 1
  1880  1073  1083 1
  1881   968  1163 1
  1882  1013  1214 1
  1883  1047  1163 1
  1884  1047  1214 1
  1885  1073  1214 1
  1886   968  1039 1
  1887  1209  1247 1
  1888  1096  1307 1
  1889  1203  1209 1
  1890   970  1019 1
  1891  1378  1469 1
  1892   971  1022 1
  1893  1378  1416 1
  1894  1378  1475 1
  1895  1378  1486 1
  1896  1416  1475 1
  1897  1416  1486 1
  1898  1475  1486 1
  1899  1378  1422 1
  1900  1378  1382 1
  1901  1378  1470 1
  1902  1378  1476 1
  1903  1416  1476 1
  1904  1416  1487 1
  1905  1475  1476 1
  1906   972  1021 1
  1907   974  1116 1
  1908  1064  1080 1
  1909  1076  1080 1
  1910  1105  1158 1
  1911   978  1005 1
  1912   978  1113 1
  1913  1000  1005 1
  1914  1000  1035 1
  1915  1105  1113 1
  1916  1105  1219 1
  1917  1105  1225 1
  1918  1219  1225 1
  1919  1105  1187 1
  1920  1008  1307 1
  1921  1085  1307 1
  1922  1298  1307 1
  1923   979  1090 1
  1924   994  1102 1
  1925  1085  1090 1
  1926  1091  1102 1
  1927  1002  1216 1
  1928  1087  1216 1
  1929  1088  1216 1
  1930  1166  1216 1
  1931   979  1008 1
  1932   979  1085 1
  1933   994   998 1
  1934   994  1085 1
  1935   994  1086 1
  1936   994  1091 1
  1937   998  1002 1
  1938   998  1008 1
  1939   998  1085 1
  1940   998  1086 1
  1941   998  1087 1
  1942   998  1088 1
  1943   998  1091 1
  1944   998  1166 1
  1945   998  1298 1
  1946   998  1308 1
  1947  1002  1008 1
  1948  1002  1086 1
  1949  1002  1087 1
  1950  1002  1088 1
  1951  1002  1210 1
  1952  1008  1085 1
  1953  1008  1086 1
  1954  1008  1087 1
  1955  1008  1088 1
  1956  1008  1091 1
  1957  1008  1166 1
  1958  1008  1298 1
  1959  1008  1308 1
  1960  1085  1086 1
  1961  1085  1087 1
  1962  1085  1091 1
  1963  1085  1166 1
  1964  1085  1298 1
  1965  1085  1308 1
  1966  1086  1087 1
  1967  1086  1088 1
  1968  1086  1091 1
  1969  1086  1166 1
  1970  1086  1210 1
  1971  1087  1088 1
  1972  1087  1093 1
  1973  1087  1166 1
  1974  1087  1210 1
  1975  1087  1298 1
  1976  1087  1308 1
  1977  1088  1166 1
  1978  1088  1210 1
  1979  1088  1308 1
  1980  1091  1298 1
  1981  1166  1308 1
  1982  1298  1308 1
  1983  1002  1094 1
  1984  1002  1204 1
  1985  1088  1094 1
  1986  1088  1204 1
  1987   994  1032 1
  1988   994  1092 1
  1989   998  1092 1
  1990  1002  1092 1
  1991  1086  1092 1
  1992  1091  1092 1
  1993   980  1007 1
  1994   980  1252 1
  1995  1007  1252 1
  1996  1252  1342 1
  1997  1032  1102 1
  1998  1302  1310 1
  1999   981  1002 1
  2000   981  1086 1
  2001   981  1088 1
  2002   981  1210 1
  2003  1032  1091 1
  2004   981  1092 1
  2005  1032  1092 1
  2006  1032  1103 1
  2007  1089  1092 1
  2008  1089  1099 1
  2009  1092  1103 1
  2010   982  1004 1
  2011  1004  1112 1
  2012   983  1027 1
  2013   983   995 1
  2014  1027  1410 1
  2015   986  1205 1
  2016   986  1239 1
  2017  1045  1239 1
  2018  1205  1239 1
  2019  1205  1265 1
  2020  1259  1276 1
  2021  1262  1269 1
  2022  1265  1269 1
  2023  1269  1276 1
  2024   986  1160 1
  2025   986  1246 1
  2026  1045  1160 1
  2027  1205  1246 1
  2028  1265  1275 1
  2029   997  1007 1
  2030   991  1030 1
  2031   992  1030 1
  2032  1003  1030 1
  2033   993   997 1
  2034   993  1031 1
  2035   993  1234 1
  2036  1006  1010 1
  2037  1006  1016 1
  2038   999  1006 1
  2039  1009  1015 1
  2040  1009  1072 1
  2041  1015  1057 1
  2042  1015  1072 1
  2043  1015  1292 1
  2044  1015  1337 1
  2045  1011  1021 1
  2046  1011  1017 1
  2047  1017  1055 1
  2048  1014  1048 1
  2049  1014  1053 1
  2050  1014  1076 1
  2051  1019  1260 1
  2052  1019  1274 1
  2053  1260  1274 1
  2054  1026  1045 1
  2055  1026  1160 1
  2056  1026  1231 1
  2057  1026  1154 1
  2058  1037  1159 1
  2059  1196  1304 1
  2060  1101  1196 1
  2061  1174  1196 1
  2062  1060  1150 1
  2063  1074  1084 1
  2064  1083  1183 1
  2065  1083  1222 1
  2066  1263  1267 1
  2067  1069  1160 1
  2068  1069  1217 1
  2069  1074  1149 1
  2070  1063  1078 1
  2071  1063  1233 1
  2072  1069  1074 1
  2073  1074  1078 1
  2074  1078  1083 1
  2075  1078  1233 1
  2076  1083  1214 1
  2077  1063  1154 1
  2078  1066  1083 1
  2079  1066  1214 1
  2080  1163  1214 1
  2081  1071  1075 1
  2082  1257  1463 1
  2083  1267  1463 1
  2084  1084  1236 1
  2085  1084  1222 1
  2086  1183  1222 1
  2087  1184  1222 1
  2088  1090  1096 1
  2089  1090  1307 1
  2090  1296  1309 1
  2091  1090  1098 1
  2092  1090  1091 1
  2093  1090  1298 1
  2094  1098  1298 1
  2095  1204  1216 1
  2096  1094  1210 1
  2097  1204  1210 1
  2098  1094  1204 1
  2099  1382  1469 1
  2100  1382  1392 1
  2101  1382  1471 1
  2102  1386  1392 1
  2103  1386  1471 1
  2104  1470  1471 1
  2105  1382  1475 1
  2106  1470  1475 1
  2107  1100  1476 1
  2108  1365  1386 1
  2109  1365  1470 1
  2110  1365  1472 1
  2111  1365  1476 1
  2112  1382  1386 1
  2113  1382  1470 1
  2114  1382  1472 1
  2115  1382  1476 1
  2116  1386  1470 1
  2117  1386  1472 1
  2118  1386  1476 1
  2119  1386  1478 1
  2120  1470  1472 1
  2121  1470  1476 1
  2122  1472  1478 1
  2123  1476  1487 1
  2124  1100  1145 1
  2125  1104  1159 1
  2126  1104  1245 1
  2127  1106  1115 1
  2128  1106  1116 1
  2129  1164  1213 1
  2130  1206  1240 1
  2131  1109  1118 1
  2132  1109  1206 1
  2133  1109  1268 1
  2134  1206  1268 1
  2135  1256  1272 1
  2136  1268  1272 1
  2137  1117  1252 1
  2138  1117  1342 1
  2139  1126  1157 1
  2140  1132  1157 1
  2141  1126  1254 1
  2142  1119  1120 1
  2143  1119  1122 1
  2144  1120  1122 1
  2145  1120  1125 1
  2146  1120  1126 1
  2147  1125  1135 1
  2148  1126  1132 1
  2149  1126  1133 1
  2150  1122  1129 1
  2151  1119  1121 1
  2152  1119  1123 1
  2153  1120  1123 1
  2154  1119  1124 1
  2155  1121  1122 1
  2156  1123  1125 1
  2157  1121  1127 1
  2158  1121  1128 1
  2159  1123  1131 1
  2160  1123  1253 1
  2161  1131  1253 1
  2162  1168  1253 1
  2163  1121  1124 1
  2164  1124  1134 1
  2165  1181  1221 1
  2166  1124  1130 1
  2167  1124  1136 1
  2168  1139  1145 1
  2169  1139  1148 1
  2170  1143  1151 1
  2171  1143  1160 1
  2172  1143  1217 1
  2173  1151  1217 1
  2174  1182  1413 1
  2175  1144  1152 1
  2176  1153  1232 1
  2177  1153  1248 1
  2178  1153  1250 1
  2179  1153  1332 1
  2180  1232  1332 1
  2181  1232  1338 1
  2182  1332  1338 1
  2183  1153  1230 1
  2184  1154  1160 1
  2185  1154  1233 1
  2186  1154  1231 1
  2187  1154  1249 1
  2188  1154  1229 1
  2189  1154  1247 1
  2190  1154  1253 1
  2191  1528  1536 1
  2192  1158  1528 1
  2193  1158  1219 1
  2194  1158  1235 1
  2195  1158  1225 1
  2196  1158  1241 1
  2197  1158  1175 1
  2198  1161  1404 1
  2199  1207  1249 1
  2200  1162  1211 1
  2201  1201  1207 1
  2202  1201  1211 1
  2203  1201  1264 1
  2204  1207  1264 1
  2205  1301  1310 1
  2206  1282  1288 1
  2207  1171  1200 1
  2208  1171  1277 1
  2209  1171  1282 1
  2210  1186  1190 1
  2211  1186  1277 1
  2212  1186  1278 1
  2213  1186  1283 1
  2214  1186  1294 1
  2215  1190  1200 1
  2216  1190  1277 1
  2217  1190  1278 1
  2218  1190  1279 1
  2219  1190  1283 1
  2220  1200  1277 1
  2221  1200  1278 1
  2222  1200  1279 1
  2223  1200  1283 1
  2224  1277  1278 1
  2225  1277  1279 1
  2226  1277  1282 1
  2227  1277  1283 1
  2228  1278  1279 1
  2229  1278  1283 1
  2230  1282  1283 1
  2231  1282  1290 1
  2232  1283  1294 1
  2233  1186  1230 1
  2234  1282  1293 1
  2235  1190  1194 1
  2236  1190  1280 1
  2237  1200  1280 1
  2238  1278  1280 1
  2239  1279  1280 1
  2240  1279  1285 1
  2241  1186  1224 1
  2242  1186  1284 1
  2243  1190  1284 1
  2244  1278  1284 1
  2245  1283  1284 1
  2246  1172  1199 1
  2247  1185  1189 1
  2248  1185  1223 1
  2249  1189  1199 1
  2250  1189  1385 1
  2251  1199  1385 1
  2252  1385  1413 1
  2253  1185  1229 1
  2254  1223  1229 1
  2255  1179  1220 1
  2256  1180  1220 1
  2257  1215  1220 1
  2258  1194  1200 1
  2259  1194  1278 1
  2260  1194  1279 1
  2261  1194  1280 1
  2262  1194  1286 1
  2263  1280  1286 1
  2264  1194  1284 1
  2265  1212  1306 1
  2266  1230  1283 1
  2267  1230  1294 1
  2268  1230  1293 1
  2269  1343  1525 1
  2270  1266  1276 1
  2271  1343  1522 1
  2272  1266  1341 1
  2273  1255  1270 1
  2274  1261  1266 1
  2275  1266  1270 1
  2276  1335  1343 1
  2277  1270  1275 1
  2278  1258  1275 1
  2279  1281  1289 1
  2280  1281  1287 1
  2281  1281  1284 1
  2282  1281  1291 1
  2283  1313  1314 1
  2284  1313  1320 1
  2285  1313  1319 1
  2286  1313  1316 1
  2287  1316  1322 1
  2288  1316  1326 1
  2289  1316  1328 1
  2290  1377  1381 1
  2291  1346  1352 1
  2292  1346  1423 1
  2293  1346  1421 1
  2294  1346  1425 1
  2295  1377  1415 1
  2296  1377  1421 1
  2297  1415  1421 1
  2298  1346  1445 1
  2299  1346  1439 1
  2300  1346  1441 1
  2301  1348  1357 1
  2302  1348  1409 1
  2303  1357  1409 1
  2304  1348  1349 1
  2305  1348  1428 1
  2306  1357  1428 1
  2307  1348  1352 1
  2308  1348  1438 1
  2309  1348  1443 1
  2310  1348  1369 1
  2311  1349  1428 1
  2312  1383  1387 1
  2313  1383  1390 1
  2314  1351  1426 1
  2315  1351  1444 1
  2316  1351  1432 1
  2317  1397  1457 1
  2318  1352  1397 1
  2319  1352  1423 1
  2320  1352  1431 1
  2321  1352  1443 1
  2322  1397  1431 1
  2323  1397  1438 1
  2324  1352  1415 1
  2325  1352  1425 1
  2326  1354  1403 1
  2327  1355  1406 1
  2328  1375  1414 1
  2329  1376  1414 1
  2330  1387  1414 1
  2331  1356  1405 1
  2332  1358  1500 1
  2333  1358  1408 1
  2334  1359  1446 1
  2335  1369  1443 1
  2336  1360  1445 1
  2337  1361  1390 1
  2338  1362  1389 1
  2339  1362  1497 1
  2340  1489  1497 1
  2341  1363  1469 1
  2342  1363  1474 1
  2343  1469  1474 1
  2344  1474  1480 1
  2345  1474  1482 1
  2346  1474  1485 1
  2347  1363  1392 1
  2348  1469  1471 1
  2349  1469  1475 1
  2350  1474  1475 1
  2351  1469  1470 1
  2352  1364  1391 1
  2353  1366  1388 1
  2354  1388  1496 1
  2355  1367  1411 1
  2356  1379  1411 1
  2357  1367  1379 1
  2358  1379  1420 1
  2359  1394  1400 1
  2360  1394  1420 1
  2361  1400  1420 1
  2362  1400  1434 1
  2363  1420  1434 1
  2364  1379  1417 1
  2365  1392  1469 1
  2366  1392  1471 1
  2367  1471  1477 1
  2368  1392  1475 1
  2369  1392  1470 1
  2370  1392  1472 1
  2371  1471  1472 1
  2372  1371  1412 1
  2373  1373  1413 1
  2374  1393  1399 1
  2375  1393  1456 1
  2376  1393  1403 1
  2377  1493  1502 1
  2378  1494  1502 1
  2379  1395  1401 1
  2380  1401  1439 1
  2381  1395  1405 1
  2382  1408  1500 1
  2383  1396  1408 1
  2384  1404  1498 1
  2385  1396  1402 1
  2386  1398  1432 1
  2387  1452  1466 1
  2388  1460  1466 1
  2389  1464  1466 1
  2390  1398  1460 1
  2391  1448  1464 1
  2392  1460  1464 1
  2393  1398  1437 1
  2394  1399  1441 1
  2395  1399  1456 1
  2396  1444  1534 1
  2397  1407  1412 1
  2398  1411  1417 1
  2399  1447  1462 1
  2400  1450  1467 1
  2401  1453  1458 1
  2402  1457  1461 1
  2403  1457  1467 1
  2404  1458  1462 1
  2405  1458  1468 1
  2406  1461  1468 1
  2407  1462  1467 1
  2408  1473  1476 1
  2409  1473  1479 1
  2410  1473  1481 1
  2411  1473  1483 1
  2412  1484  1529 1
  2413  1488  1501 1
  2414  1490  1499 1
  2415  1490  1500 1
  2416  1503  1504 1
  2417  1503  1506 1
  2418  1504  1506 1
  2419  1504  1509 1
  2420  1504  1510 1
  2421  1509  1519 1
  2422  1510  1516 1
  2423  1510  1517 1
  2424  1506  1513 1
  2425  1503  1505 1
  2426  1503  1507 1
  2427  1503  1508 1
  2428  1504  1507 1
  2429  1505  1506 1
  2430  1507  1509 1
  2431  1505  1512 1
  2432  1505  1508 1
  2433  1507  1515 1
  2434  1508  1518 1
  2435  1508  1514 1
  2436  1508  1520 1
  2437  1523  1529 1
  2438  1523  1532 1
