@<TRIPOS>MOLECULE
Lattice="32.018782 0.0 0.0 -14.043870532898428 28.753623292648026 0.0 -8.625062807759862 -14.478403582935226 26.22054754850901" Properties=species:S:1:pos:R:3 i=9 E=-1553.2203603346 pbc="T T T"
 120 112 0 0 0
SMALL
GASTEIGER

@<TRIPOS>ATOM
      1 F           3.6623    9.9180   12.8971 F       1  UNL1       -0.1492
      2 F           6.8596    8.3746   12.6466 F       1  UNL1       -0.1492
      3 F           4.8417   10.7064   11.2125 F       1  UNL1       -0.1492
      4 F           3.1110   11.8305   11.9653 F       1  UNL1       -0.1492
      5 O           4.3904   11.9724   14.7698 O.2     1  UNL1       -0.1468
      6 C           4.1668   11.0512   12.3379 C.3     1  UNL1        0.5387
      7 F           8.0229    8.6720   14.4963 F       1  UNL1       -0.1492
      8 C           7.9427    9.0060   13.1812 C.3     1  UNL1        0.5387
      9 F           9.0529    8.5378   12.5497 F       1  UNL1       -0.1492
     10 S           5.2335   11.9607   13.5887 S.O2    1  UNL1        0.1638
     11 S           7.7941   10.8594   12.9420 S.O2    1  UNL1        0.1638
     12 O           5.5581   13.2076   12.9003 O.2     1  UNL1       -0.1468
     13 O           8.9843   11.4242   13.5894 O.2     1  UNL1       -0.1468
     14 O           7.6424   11.0596   11.5063 O.2     1  UNL1       -0.1468
     15 N           6.4911   11.0184   13.8659 N.3     1  UNL1        0.0775
     16 F          -0.6503    2.6788   26.0073 F       2  UNL2       -0.1492
     17 F           2.5471    1.1354   25.7569 F       2  UNL2       -0.1492
     18 F           0.5292    3.4671   24.3228 F       2  UNL2       -0.1492
     19 F          -1.2016    4.5913   25.0756 F       2  UNL2       -0.1492
     20 O           0.0779    4.7332   27.8801 O.2     2  UNL2       -0.1468
     21 C          -0.1457    3.8120   25.4482 C.3     2  UNL2        0.5387
     22 F           3.7104    1.4328   27.6065 F       2  UNL2       -0.1492
     23 C           3.6301    1.7668   26.2914 C.3     2  UNL2        0.5387
     24 F           4.7403    1.2986   25.6600 F       2  UNL2       -0.1492
     25 S           0.9210    4.7215   26.6990 S.O2    2  UNL2        0.1638
     26 S           3.4815    3.6202   26.0523 S.O2    2  UNL2        0.1638
     27 O           1.2455    5.9684   26.0106 O.2     2  UNL2       -0.1468
     28 O           4.6718    4.1850   26.6996 O.2     2  UNL2       -0.1468
     29 O           3.3299    3.8204   24.6166 O.2     2  UNL2       -0.1468
     30 N           2.1785    3.7792   26.9762 N.3     2  UNL2        0.0775
     31 F          -3.3597   24.2949   12.8971 F       3  UNL3       -0.1492
     32 F          -0.1623   22.7514   12.6466 F       3  UNL3       -0.1492
     33 F          -2.1802   25.0832   11.2125 F       3  UNL3       -0.1492
     34 F          -3.9110   26.2073   11.9653 F       3  UNL3       -0.1492
     35 O          -2.6315   26.3492   14.7698 O.2     3  UNL3       -0.1468
     36 C          -2.8551   25.4280   12.3379 C.3     3  UNL3        0.5387
     37 F           1.0010   23.0488   14.4963 F       3  UNL3       -0.1492
     38 C           0.9207   23.3828   13.1812 C.3     3  UNL3        0.5387
     39 F           2.0309   22.9146   12.5497 F       3  UNL3       -0.1492
     40 S          -1.7884   26.3376   13.5887 S.O2    3  UNL3        0.1638
     41 S           0.7721   25.2362   12.9420 S.O2    3  UNL3        0.1638
     42 O          -1.4639   27.5844   12.9003 O.2     3  UNL3       -0.1468
     43 O           1.9624   25.8010   13.5894 O.2     3  UNL3       -0.1468
     44 O           0.6205   25.4364   11.5063 O.2     3  UNL3       -0.1468
     45 N          -0.5309   25.3952   13.8659 N.3     3  UNL3        0.0775
     46 F          -7.6722   17.0556   26.0073 F       4  UNL4       -0.1492
     47 F          -4.4749   15.5122   25.7569 F       4  UNL4       -0.1492
     48 F          -6.4928   17.8440   24.3228 F       4  UNL4       -0.1492
     49 F          -8.2235   18.9681   25.0756 F       4  UNL4       -0.1492
     50 O          -6.9440   19.1100   27.8801 O.2     4  UNL4       -0.1468
     51 C          -7.1676   18.1888   25.4482 C.3     4  UNL4        0.5387
     52 F          -3.3116   15.8096   27.6065 F       4  UNL4       -0.1492
     53 C          -3.3918   16.1436   26.2914 C.3     4  UNL4        0.5387
     54 F          -2.2816   15.6754   25.6600 F       4  UNL4       -0.1492
     55 S          -6.1009   19.0984   26.6990 S.O2    4  UNL4        0.1638
     56 S          -3.5404   17.9970   26.0523 S.O2    4  UNL4        0.1638
     57 O          -5.7764   20.3452   26.0106 O.2     4  UNL4       -0.1468
     58 O          -2.3502   18.5618   26.6996 O.2     4  UNL4       -0.1468
     59 O          -3.6921   18.1972   24.6166 O.2     4  UNL4       -0.1468
     60 N          -4.8434   18.1560   26.9762 N.3     4  UNL4        0.0775
     61 F          19.6717    9.9180   12.8971 F       5  UNL5       -0.1492
     62 F          22.8690    8.3746   12.6466 F       5  UNL5       -0.1492
     63 F          20.8511   10.7064   11.2125 F       5  UNL5       -0.1492
     64 F          19.1204   11.8305   11.9653 F       5  UNL5       -0.1492
     65 O          20.3998   11.9724   14.7698 O.2     5  UNL5       -0.1468
     66 C          20.1762   11.0512   12.3379 C.3     5  UNL5        0.5387
     67 F          24.0323    8.6720   14.4963 F       5  UNL5       -0.1492
     68 C          23.9521    9.0060   13.1812 C.3     5  UNL5        0.5387
     69 F          25.0623    8.5378   12.5497 F       5  UNL5       -0.1492
     70 S          21.2429   11.9607   13.5887 S.O2    5  UNL5        0.1638
     71 S          23.8035   10.8594   12.9420 S.O2    5  UNL5        0.1638
     72 O          21.5674   13.2076   12.9003 O.2     5  UNL5       -0.1468
     73 O          24.9937   11.4242   13.5894 O.2     5  UNL5       -0.1468
     74 O          23.6518   11.0596   11.5063 O.2     5  UNL5       -0.1468
     75 N          22.5004   11.0184   13.8659 N.3     5  UNL5        0.0775
     76 F          15.3591    2.6788   26.0073 F       6  UNL6       -0.1492
     77 F          18.5565    1.1354   25.7569 F       6  UNL6       -0.1492
     78 F          16.5385    3.4671   24.3228 F       6  UNL6       -0.1492
     79 F          14.8078    4.5913   25.0756 F       6  UNL6       -0.1492
     80 O          16.0873    4.7332   27.8801 O.2     6  UNL6       -0.1468
     81 C          15.8637    3.8120   25.4482 C.3     6  UNL6        0.5387
     82 F          19.7198    1.4328   27.6065 F       6  UNL6       -0.1492
     83 C          19.6395    1.7668   26.2914 C.3     6  UNL6        0.5387
     84 F          20.7497    1.2986   25.6600 F       6  UNL6       -0.1492
     85 S          16.9304    4.7215   26.6990 S.O2    6  UNL6        0.1638
     86 S          19.4909    3.6202   26.0523 S.O2    6  UNL6        0.1638
     87 O          17.2549    5.9684   26.0106 O.2     6  UNL6       -0.1468
     88 O          20.6812    4.1850   26.6996 O.2     6  UNL6       -0.1468
     89 O          19.3393    3.8204   24.6166 O.2     6  UNL6       -0.1468
     90 N          18.1879    3.7792   26.9762 N.3     6  UNL6        0.0775
     91 F          12.6497   24.2949   12.8971 F       7  UNL7       -0.1492
     92 F          15.8471   22.7514   12.6466 F       7  UNL7       -0.1492
     93 F          13.8291   25.0832   11.2125 F       7  UNL7       -0.1492
     94 F          12.0984   26.2073   11.9653 F       7  UNL7       -0.1492
     95 O          13.3779   26.3492   14.7698 O.2     7  UNL7       -0.1468
     96 C          13.1543   25.4280   12.3379 C.3     7  UNL7        0.5387
     97 F          17.0104   23.0488   14.4963 F       7  UNL7       -0.1492
     98 C          16.9301   23.3828   13.1812 C.3     7  UNL7        0.5387
     99 F          18.0403   22.9146   12.5497 F       7  UNL7       -0.1492
    100 S          14.2210   26.3376   13.5887 S.O2    7  UNL7        0.1638
    101 S          16.7815   25.2362   12.9420 S.O2    7  UNL7        0.1638
    102 O          14.5455   27.5844   12.9003 O.2     7  UNL7       -0.1468
    103 O          17.9717   25.8010   13.5894 O.2     7  UNL7       -0.1468
    104 O          16.6299   25.4364   11.5063 O.2     7  UNL7       -0.1468
    105 N          15.4785   25.3952   13.8659 N.3     7  UNL7        0.0775
    106 F           8.3372   17.0556   26.0073 F       8  UNL8       -0.1492
    107 F          11.5345   15.5122   25.7569 F       8  UNL8       -0.1492
    108 F           9.5166   17.8440   24.3228 F       8  UNL8       -0.1492
    109 F           7.7859   18.9681   25.0756 F       8  UNL8       -0.1492
    110 O           9.0654   19.1100   27.8801 O.2     8  UNL8       -0.1468
    111 C           8.8417   18.1888   25.4482 C.3     8  UNL8        0.5387
    112 F          12.6978   15.8096   27.6065 F       8  UNL8       -0.1492
    113 C          12.6176   16.1436   26.2914 C.3     8  UNL8        0.5387
    114 F          13.7278   15.6754   25.6600 F       8  UNL8       -0.1492
    115 S           9.9085   19.0984   26.6990 S.O2    8  UNL8        0.1638
    116 S          12.4690   17.9970   26.0523 S.O2    8  UNL8        0.1638
    117 O          10.2330   20.3452   26.0106 O.2     8  UNL8       -0.1468
    118 O          13.6592   18.5618   26.6996 O.2     8  UNL8       -0.1468
    119 O          12.3173   18.1972   24.6166 O.2     8  UNL8       -0.1468
    120 N          11.1660   18.1560   26.9762 N.3     8  UNL8        0.0775
@<TRIPOS>BOND
     1    63    66    1
     2     3     6    1
     3    33    36    1
     4    93    96    1
     5    44    41    2
     6    74    71    2
     7    14    11    2
     8   104   101    2
     9    94    96    1
    10    34    36    1
    11     4     6    1
    12    64    66    1
    13    96    91    1
    14    96   100    1
    15     6     1    1
    16     6    10    1
    17    66    61    1
    18    66    70    1
    19    36    31    1
    20    36    40    1
    21     9     8    1
    22    99    98    1
    23    69    68    1
    24    39    38    1
    25    32    38    1
    26     2     8    1
    27    62    68    1
    28    92    98    1
    29    12    10    2
    30    42    40    2
    31    72    70    2
    32   102   100    2
    33    11     8    1
    34    11    13    2
    35    11    15    1
    36    41    38    1
    37    41    43    2
    38    41    45    1
    39   101    98    1
    40   101   103    2
    41   101   105    1
    42    71    68    1
    43    71    73    2
    44    71    75    1
    45    38    37    1
    46    68    67    1
    47     8     7    1
    48    98    97    1
    49    40    45    1
    50    40    35    2
    51    10    15    1
    52    10     5    2
    53    70    75    1
    54    70    65    2
    55   100   105    1
    56   100    95    2
    57    78    81    1
    58    48    51    1
    59    18    21    1
    60   108   111    1
    61    89    86    2
    62    59    56    2
    63   119   116    2
    64    29    26    2
    65   109   111    1
    66    79    81    1
    67    19    21    1
    68    49    51    1
    69    21    16    1
    70    21    25    1
    71    51    46    1
    72    51    55    1
    73    81    76    1
    74    81    85    1
    75   111   106    1
    76   111   115    1
    77    24    23    1
    78    54    53    1
    79   114   113    1
    80    84    83    1
    81    17    23    1
    82   107   113    1
    83    47    53    1
    84    77    83    1
    85   117   115    2
    86    27    25    2
    87    57    55    2
    88    87    85    2
    89    56    53    1
    90    56    58    2
    91    56    60    1
    92   116   113    1
    93   116   118    2
    94   116   120    1
    95    26    23    1
    96    26    28    2
    97    26    30    1
    98    86    83    1
    99    86    88    2
   100    86    90    1
   101   113   112    1
   102    53    52    1
   103    83    82    1
   104    23    22    1
   105    55    60    1
   106    55    50    2
   107   115   120    1
   108   115   110    2
   109    25    30    1
   110    25    20    2
   111    85    90    1
   112    85    80    2
