@<TRIPOS>MOLECULE
Lattice="32.008514 0.0 0.0 -12.398571412536722 30.280097380190625 0.0 -9.472523905389702 -14.929449512315577 26.824217628519282" Properties=species:S:1:pos:R:3 i=396 E=-1723.1099501147 pbc="T T T"
 320 276 0 0 0
SMALL
GASTEIGER

@<TRIPOS>ATOM
      1 N           3.3394    2.3728   11.5850 N.pl3   1  UNL1       -0.3135
      2 N           2.1095    2.4937   13.3903 N.pl3   1  UNL1       -0.3166
      3 C          -5.4169  -13.0583   10.5595 C.3     1  UNL1       -0.0348
      4 C          -4.3415  -11.9735   10.4728 C.3     1  UNL1       -0.0494
      5 C          -9.6946    3.4199   11.7727 C.3     2  UNL2       -0.0559
      6 C           3.3114    2.1181   12.9062 C.3     1  UNL1        0.1250
      7 C           8.2600  -12.2470   11.2161 C.3     3  UNL3       -0.0309
      8 C           1.3490    2.9957   12.3444 C.2     1  UNL1        0.0072
      9 C          -3.5996   11.7824   -1.7949 C.3     4  UNL4       -0.0681
     10 C           1.7065    2.4599   14.8064 C.3     1  UNL1        0.0020
     11 H         -11.1377    1.1556   10.9079 H       2  UNL2        0.0265
     12 H          -5.8844  -13.2486    9.5855 H       1  UNL1        0.0306
     13 H           0.0712   -3.5538   -3.2489 H       5  UNK5        0.0000
     14 H          -3.6508  -12.2986    9.6779 H       1  UNL1        0.0268
     15 H         -10.3503    3.8775   12.5277 H       2  UNL2        0.0263
     16 H          -9.3815    2.4487   12.1857 H       2  UNL2        0.0263
     17 H           4.1066    1.6611   13.4822 H       1  UNL1        0.0746
     18 H          -3.1065   -4.4317   -3.2773 H       6  UNK6        0.0000
     19 H           0.3290    3.3368   12.4784 H       1  UNL1        0.0793
     20 H          -3.8669   12.7622   -2.2150 H       3  UNL3        0.0227
     21 H          -2.8845   11.3012   -2.4773 H       3  UNL3        0.0227
     22 H          -3.0711   11.9667   -0.8493 H       3  UNL3        0.0227
     23 H           1.9942    3.3998   15.2913 H       1  UNL1        0.0428
     24 H           0.6192    2.3433   14.8639 H       1  UNL1        0.0428
     25 H           2.1911    1.6102   15.3030 H       1  UNL1        0.0428
     26 S           2.7775    4.3682    2.3435 S.O2    7  UNL7        0.1638
     27 S           4.5812    2.1167    2.4988 S.O2    7  UNL7        0.1638
     28 F           0.5398    2.9970    1.8414 F       7  UNL7       -0.1492
     29 F           0.9063    4.7038    0.4893 F       7  UNL7       -0.1492
     30 F           2.0242    2.8315    0.2293 F       7  UNL7       -0.1492
     31 F           4.3446   -0.5135    2.0707 F       7  UNL7       -0.1492
     32 F           3.4128    0.1577    3.9471 F       7  UNL7       -0.1492
     33 F           2.4248    0.5368    2.0110 F       7  UNL7       -0.1492
     34 O           3.6468    5.1956    1.4931 O.2     7  UNL7       -0.1468
     35 O           1.9427    5.0375    3.3300 O.2     7  UNL7       -0.1468
     36 O           5.6401    1.9415    3.4889 O.2     7  UNL7       -0.1468
     37 O           4.9228    2.2321    1.0880 O.2     7  UNL7       -0.1468
     38 N           3.4627    3.1241    3.0657 N.3     7  UNL7        0.0775
     39 C           1.5006    3.6723    1.1528 C.3     7  UNL7        0.5387
     40 C           3.6274    0.4944    2.6426 C.3     7  UNL7        0.5387
     41 N          -1.3968   -5.0919   24.9971 N.pl3   8  UNL8       -0.3058
     42 N          -2.6268   -4.9711   26.8024 N.pl3   8  UNL8       -0.3160
     43 C         -10.1531  -20.5231   23.9716 C.3     4  UNL4       -0.0309
     44 C          -9.0778  -19.4383   23.8850 C.3     4  UNL4       -0.0309
     45 C         -14.4309   -4.0448   25.1849 C.3     5  UNK5       -0.0497
     46 C          -1.4248   -5.3467   26.3183 C.3     8  UNL8        0.1255
     47 C           3.5237  -19.7118   24.6282 C.3     9  UNL9        0.0000
     48 C          -3.3873   -4.4691   25.7565 C.2     8  UNL8        0.0165
     49 C          -8.3359    4.3177   11.6172 C.3     2  UNL2       -0.0653
     50 C          -3.0298   -5.0048   28.2185 C.3     8  UNL8        0.0020
     51 H         -15.8739   -6.3092   24.3200 H       5  UNK5        0.0268
     52 H         -10.6207  -20.7133   22.9977 H       4  UNL4        0.0309
     53 H          -4.6650  -11.0186   10.1632 H       1  UNL1        0.0268
     54 H          -8.3870  -19.7633   23.0900 H       4  UNL4        0.0309
     55 H         -15.0865   -3.5873   25.9398 H       5  UNK5        0.0268
     56 H         -14.1178   -5.0161   25.5978 H       5  UNK5        0.0268
     57 H          -0.6296   -5.8036   26.8943 H       8  UNL8        0.0746
     58 H          -7.8428  -11.8965   10.1349 H      10  UNK10       0.0000
     59 H          -4.4072   -4.1279   25.8906 H       8  UNL8        0.0800
     60 H          -8.6032    5.2974   11.1971 H       2  UNL2        0.0230
     61 H          -7.6207    3.8365   10.9348 H       2  UNL2        0.0230
     62 H          -7.8074    4.5020   12.5628 H       2  UNL2        0.0230
     63 H          -2.7421   -4.0650   28.7034 H       8  UNL8        0.0428
     64 H          -4.1171   -5.1215   28.2760 H       8  UNL8        0.0428
     65 H          -2.5451   -5.8545   28.7151 H       8  UNL8        0.0428
     66 S          -1.9587   -3.0965   15.7556 S.O2   11  UNL11       0.1638
     67 S          -0.1550   -5.3480   15.9109 S.O2   11  UNL11       0.1638
     68 F          -4.1964   -4.4677   15.2535 F      11  UNL11      -0.1492
     69 F          -3.8300   -2.7609   13.9014 F      11  UNL11      -0.1492
     70 F          -2.7121   -4.6332   13.6414 F      11  UNL11      -0.1492
     71 F          -0.3917   -7.9783   15.4828 F      11  UNL11      -0.1492
     72 F          -1.3235   -7.3070   17.3592 F      11  UNL11      -0.1492
     73 F          -2.3114   -6.9279   15.4231 F      11  UNL11      -0.1492
     74 O          -1.0894   -2.2691   14.9052 O.2    11  UNL11      -0.1468
     75 O          -2.7935   -2.4272   16.7421 O.2    11  UNL11      -0.1468
     76 O           0.9039   -5.5232   16.9010 O.2    11  UNL11      -0.1468
     77 O           0.1866   -5.2326   14.5001 O.2    11  UNL11      -0.1468
     78 N          -1.2736   -4.3406   16.4778 N.3    11  UNL11       0.0775
     79 C          -3.2357   -3.7924   14.5649 C.3    11  UNL11       0.5387
     80 C          -1.1089   -6.9703   16.0547 C.3    11  UNL11       0.5387
     81 N          -2.8598   17.5129   11.5850 N.2    12  UNL12      -0.1411
     82 N          -4.0898   17.6337   13.3903 N.pl3  12  UNL12      -0.3160
     83 C         -11.6162    2.0817   10.5595 C.3     2  UNL2       -0.0531
     84 C         -10.5408    3.1665   10.4728 C.3     2  UNL2       -0.0533
     85 C         -15.8939   18.5600   11.7727 C.3     7  UNL7       -0.0562
     86 C          -2.8879   17.2581   12.9062 C.2    12  UNL12       0.1066
     87 C           2.0607    2.8930   11.2161 C.2     1  UNL1        0.0074
     88 C          -4.8503   18.1357   12.3444 C.3    12  UNL12       0.0645
     89 C          -9.7989   26.9225   -1.7949 C.3    13  UNL13      -0.0681
     90 C          -4.4928   17.5999   14.8064 C.3    12  UNL12       0.0019
     91 H         -17.3369   16.2956   10.9079 H      14  UNK14       0.0000
     92 H         -12.0837    1.8915    9.5855 H       2  UNL2        0.0265
     93 H          -6.1281   11.5862   -3.2489 H      15  UNK15       0.0000
     94 H          -9.8500    2.8415    9.6779 H       2  UNL2        0.0265
     95 H         -16.5495   19.0175   12.5277 H       7  UNL7        0.0263
     96 H         -15.5808   17.5887   12.1857 H       7  UNL7        0.0263
     97 H          -2.0927   16.8012   13.4822 H      12  UNL12       0.1018
     98 H          -9.3058   10.7083   -3.2773 H      16  UNK16       0.0000
     99 H          -5.8703   18.4769   12.4784 H      12  UNL12       0.0538
    100 H         -10.0662   27.9022   -2.2150 H       8  UNL8        0.0227
    101 H          -9.0837   26.4412   -2.4773 H       8  UNL8        0.0227
    102 H          -9.2704   27.1068   -0.8493 H       8  UNL8        0.0227
    103 H          -4.2051   18.5398   15.2913 H      12  UNL12       0.0428
    104 H          -5.5801   17.4833   14.8639 H      12  UNL12       0.0428
    105 H          -4.0082   16.7502   15.3030 H      12  UNL12       0.0428
    106 S          -3.4218   19.5083    2.3435 S.O2   17  UNL17       0.1638
    107 S          -1.6181   17.2568    2.4988 S.O2   17  UNL17       0.1638
    108 F          -5.6595   18.1370    1.8414 F      17  UNL17      -0.1492
    109 F          -5.2930   19.8438    0.4893 F      17  UNL17      -0.1492
    110 F          -4.1751   17.9716    0.2293 F      17  UNL17      -0.1492
    111 F          -1.8547   14.6265    2.0707 F      17  UNL17      -0.1492
    112 F          -2.7865   15.2977    3.9471 F      17  UNL17      -0.1492
    113 F          -3.7745   15.6769    2.0110 F      17  UNL17      -0.1492
    114 O          -2.5524   20.3356    1.4931 O.2    17  UNL17      -0.1468
    115 O          -4.2566   20.1775    3.3300 O.2    17  UNL17      -0.1468
    116 O          -0.5592   17.0816    3.4889 O.2    17  UNL17      -0.1468
    117 O          -1.2765   17.3722    1.0880 O.2    17  UNL17      -0.1468
    118 N          -2.7366   18.2642    3.0657 N.3    17  UNL17       0.0775
    119 C          -4.6987   18.8124    1.1528 C.3    17  UNL17       0.5387
    120 C          -2.5719   15.6345    2.6426 C.3    17  UNL17       0.5387
    121 N          -7.5961   10.0482   24.9971 N.2    18  UNL18      -0.1411
    122 N          -8.8260   10.1690   26.8024 N.pl3  18  UNL18      -0.3160
    123 C         -16.3524   -5.3830   23.9716 C.3     5  UNK5       -0.0497
    124 C         -15.2771   -4.2982   23.8850 C.3     5  UNK5       -0.0382
    125 C         -20.6301   11.0952   25.1849 C.3    19  UNL19      -0.0531
    126 C          -7.6241    9.7934   26.3183 C.2    18  UNL18       0.1066
    127 C          -2.6755   -4.5717   24.6282 C.2     8  UNL8        0.0677
    128 C          -9.5866   10.6710   25.7565 C.3    18  UNL18       0.0645
    129 C         -14.5352   19.4578   11.6172 C.3     7  UNL7       -0.0653
    130 C          -9.2291   10.1352   28.2185 C.3    18  UNL18       0.0019
    131 H         -22.0732    8.8309   24.3200 H      20  UNK20       0.0000
    132 H         -16.8200   -5.5733   22.9977 H       5  UNK5        0.0268
    133 H         -10.8643    4.1215   10.1632 H       2  UNL2        0.0265
    134 H         -14.5863   -4.6232   23.0900 H       5  UNK5        0.0303
    135 H         -21.2858   11.5528   25.9398 H       9  UNL9        0.0265
    136 H         -20.3171   10.1240   25.5978 H       9  UNL9        0.0265
    137 H          -6.8289    9.3365   26.8943 H      18  UNL18       0.1018
    138 H         -14.0420    3.2436   10.1349 H      21  UNK21       0.0000
    139 H         -10.6065   11.0121   25.8906 H      18  UNL18       0.0538
    140 H         -14.8024   20.4375   11.1971 H       7  UNL7        0.0230
    141 H         -13.8200   18.9765   10.9348 H       7  UNL7        0.0230
    142 H         -14.0067   19.6421   12.5628 H       7  UNL7        0.0230
    143 H          -8.9413   11.0751   28.7034 H      18  UNL18       0.0428
    144 H         -10.3164   10.0186   28.2760 H      18  UNL18       0.0428
    145 H          -8.7444    9.2855   28.7151 H      18  UNL18       0.0428
    146 S          -8.1580   12.0435   15.7556 S.O2   22  UNL22       0.1638
    147 S          -6.3543    9.7920   15.9109 S.O2   22  UNL22       0.1638
    148 F         -10.3957   10.6723   15.2535 F      22  UNL22      -0.1492
    149 F         -10.0293   12.3791   13.9014 F      22  UNL22      -0.1492
    150 F          -8.9114   10.5068   13.6414 F      22  UNL22      -0.1492
    151 F          -6.5910    7.1618   15.4828 F      22  UNL22      -0.1492
    152 F          -7.5228    7.8330   17.3592 F      22  UNL22      -0.1492
    153 F          -8.5107    8.2121   15.4231 F      22  UNL22      -0.1492
    154 O          -7.2887   12.8709   14.9052 O.2    22  UNL22      -0.1468
    155 O          -8.9928   12.7128   16.7421 O.2    22  UNL22      -0.1468
    156 O          -5.2954    9.6168   16.9010 O.2    22  UNL22      -0.1468
    157 O          -6.0127    9.9075   14.5001 O.2    22  UNL22      -0.1468
    158 N          -7.4729   10.7995   16.4778 N.3    22  UNL22       0.0775
    159 C          -9.4350   11.3477   14.5649 C.3    22  UNL22       0.5387
    160 C          -7.3082    8.1698   16.0547 C.3    22  UNL22       0.5387
    161 N          19.3437    2.3728   11.5850 N.2    23  UNL23      -0.2367
    162 N          18.1138    2.4937   13.3903 N.pl3  23  UNL23      -0.2985
    163 C          10.5874  -13.0583   10.5595 C.3    10  UNK10      -0.0348
    164 C          11.6627  -11.9735   10.4728 C.3    10  UNK10      -0.0494
    165 C           6.3097    3.4199   11.7727 C.3     1  UNL1       -0.0545
    166 C          19.3157    2.1181   12.9062 C.2    23  UNL23       0.0882
    167 C          24.2643  -12.2470   11.2161 C.3    24  UNL24       0.0000
    168 C          17.3532    2.9957   12.3444 C.2    23  UNL23       0.0248
    169 C          12.4046   11.7824   -1.7949 C.3    25  UNL25      -0.0681
    170 C          17.7107    2.4599   14.8064 C.3    23  UNL23       0.0061
    171 H           4.8666    1.1556   10.9079 H       1  UNL1        0.0464
    172 H          10.1199  -13.2486    9.5855 H      10  UNK10       0.0306
    173 H          16.0755   -3.5538   -3.2489 H      26  UNK26       0.0000
    174 H          12.3535  -12.2986    9.6779 H      10  UNK10       0.0268
    175 H           5.6540    3.8775   12.5277 H       1  UNL1        0.0263
    176 H           6.6227    2.4487   12.1857 H       1  UNL1        0.0263
    177 H          20.1109    1.6611   13.4822 H      23  UNL23       0.1002
    178 H          12.8978   -4.4317   -3.2773 H      27  UNK27       0.0000
    179 H          16.3333    3.3368   12.4784 H      23  UNL23       0.0806
    180 H          12.1374   12.7622   -2.2150 H      12  UNL12       0.0227
    181 H          13.1198   11.3012   -2.4773 H      12  UNL12       0.0227
    182 H          12.9331   11.9667   -0.8493 H      12  UNL12       0.0227
    183 H          17.9985    3.3998   15.2913 H      23  UNL23       0.0432
    184 H          16.6234    2.3433   14.8639 H      23  UNL23       0.0432
    185 H          18.1954    1.6102   15.3030 H      23  UNL23       0.0432
    186 S          18.7818    4.3682    2.3435 S.O2   28  UNL28       0.1638
    187 S          20.5855    2.1167    2.4988 S.O2   28  UNL28       0.1638
    188 F          16.5441    2.9970    1.8414 F      28  UNL28      -0.1492
    189 F          16.9105    4.7038    0.4893 F      28  UNL28      -0.1492
    190 F          18.0284    2.8315    0.2293 F      28  UNL28      -0.1492
    191 F          20.3488   -0.5135    2.0707 F      28  UNL28      -0.1492
    192 F          19.4170    0.1577    3.9471 F      28  UNL28      -0.1492
    193 F          18.4291    0.5368    2.0110 F      28  UNL28      -0.1492
    194 O          19.6511    5.1956    1.4931 O.2    28  UNL28      -0.1468
    195 O          17.9470    5.0375    3.3300 O.2    28  UNL28      -0.1468
    196 O          21.6444    1.9415    3.4889 O.2    28  UNL28      -0.1468
    197 O          20.9271    2.2321    1.0880 O.2    28  UNL28      -0.1468
    198 N          19.4669    3.1241    3.0657 N.3    28  UNL28       0.0775
    199 C          17.5048    3.6723    1.1528 C.3    28  UNL28       0.5387
    200 C          19.6316    0.4944    2.6426 C.3    28  UNL28       0.5387
    201 N          14.6074   -5.0919   24.9971 N.2    29  UNL29      -0.2367
    202 N          13.3775   -4.9711   26.8024 N.pl3  29  UNL29      -0.2985
    203 C           5.8511  -20.5231   23.9716 C.3    13  UNL13      -0.0309
    204 C           6.9265  -19.4383   23.8850 C.3    13  UNL13      -0.0309
    205 C           1.5734   -4.0448   25.1849 C.3     8  UNL8       -0.0482
    206 C          14.5794   -5.3467   26.3183 C.2    29  UNL29       0.0882
    207 C          19.5280  -19.7118   24.6282 C.3    30  UNL30       0.0000
    208 C          12.6170   -4.4691   25.7565 C.2    29  UNL29       0.0248
    209 C           7.6684    4.3177   11.6172 C.3     1  UNL1       -0.0652
    210 C          12.9745   -5.0048   28.2185 C.3    29  UNL29       0.0061
    211 H           0.1303   -6.3092   24.3200 H       8  UNL8        0.0467
    212 H           5.3836  -20.7133   22.9977 H      13  UNL13       0.0309
    213 H          11.3392  -11.0186   10.1632 H      10  UNK10       0.0268
    214 H           7.6172  -19.7633   23.0900 H      13  UNL13       0.0309
    215 H           0.9177   -3.5873   25.9398 H       8  UNL8        0.0269
    216 H           1.8865   -5.0161   25.5978 H       8  UNL8        0.0269
    217 H          15.3746   -5.8036   26.8943 H      29  UNL29       0.1002
    218 H           8.1615  -11.8965   10.1349 H       2  UNL2        0.0309
    219 H          11.5970   -4.1279   25.8906 H      29  UNL29       0.0806
    220 H           7.4011    5.2974   11.1971 H       1  UNL1        0.0230
    221 H           8.3835    3.8365   10.9348 H       1  UNL1        0.0230
    222 H           8.1968    4.5020   12.5628 H       1  UNL1        0.0230
    223 H          13.2622   -4.0650   28.7034 H      29  UNL29       0.0432
    224 H          11.8872   -5.1215   28.2760 H      29  UNL29       0.0432
    225 H          13.4591   -5.8545   28.7151 H      29  UNL29       0.0432
    226 S          14.0455   -3.0965   15.7556 S.O2   31  UNL31       0.1638
    227 S          15.8492   -5.3480   15.9109 S.O2   31  UNL31       0.1638
    228 F          11.8078   -4.4677   15.2535 F      31  UNL31      -0.1492
    229 F          12.1743   -2.7609   13.9014 F      31  UNL31      -0.1492
    230 F          13.2922   -4.6332   13.6414 F      31  UNL31      -0.1492
    231 F          15.6125   -7.9783   15.4828 F      31  UNL31      -0.1492
    232 F          14.6808   -7.3070   17.3592 F      31  UNL31      -0.1492
    233 F          13.6928   -6.9279   15.4231 F      31  UNL31      -0.1492
    234 O          14.9148   -2.2691   14.9052 O.2    31  UNL31      -0.1468
    235 O          13.2107   -2.4272   16.7421 O.2    31  UNL31      -0.1468
    236 O          16.9081   -5.5232   16.9010 O.2    31  UNL31      -0.1468
    237 O          16.1908   -5.2326   14.5001 O.2    31  UNL31      -0.1468
    238 N          14.7307   -4.3406   16.4778 N.3    31  UNL31       0.0775
    239 C          12.7686   -3.7924   14.5649 C.3    31  UNL31       0.5387
    240 C          14.8954   -6.9703   16.0547 C.3    31  UNL31       0.5387
    241 N          13.1444   17.5129   11.5850 N.2    32  UNL32      -0.1411
    242 N          11.9145   17.6337   13.3903 N.pl3  32  UNL32      -0.3160
    243 C           4.3881    2.0817   10.5595 C.3     1  UNL1        0.0135
    244 C           5.4634    3.1665   10.4728 C.3     1  UNL1       -0.0374
    245 C           0.1104   18.5600   11.7727 C.3    15  UNK15      -0.0562
    246 C          13.1164   17.2581   12.9062 C.2    32  UNL32       0.1066
    247 C          18.0650    2.8930   11.2161 C.2    23  UNL23       0.1058
    248 C          11.1539   18.1357   12.3444 C.3    32  UNL32       0.0645
    249 C           6.2053   26.9225   -1.7949 C.3    33  UNL33      -0.0681
    250 C          11.5115   17.5999   14.8064 C.3    32  UNL32       0.0019
    251 H          -1.3327   16.2956   10.9079 H      34  UNK34       0.0000
    252 H           3.9206    1.8915    9.5855 H       1  UNL1        0.0464
    253 H           9.8762   11.5862   -3.2489 H      35  UNK35       0.0000
    254 H           6.1542    2.8415    9.6779 H       1  UNL1        0.0280
    255 H          -0.5453   19.0175   12.5277 H      15  UNK15       0.0263
    256 H           0.4234   17.5887   12.1857 H      15  UNK15       0.0263
    257 H          13.9116   16.8012   13.4822 H      32  UNL32       0.1018
    258 H           6.6985   10.7083   -3.2773 H      36  UNK36       0.0000
    259 H          10.1340   18.4769   12.4784 H      32  UNL32       0.0538
    260 H           5.9381   27.9022   -2.2150 H      16  UNK16       0.0227
    261 H           6.9205   26.4412   -2.4773 H      16  UNK16       0.0227
    262 H           6.7338   27.1068   -0.8493 H      16  UNK16       0.0227
    263 H          11.7992   18.5398   15.2913 H      32  UNL32       0.0428
    264 H          10.4241   17.4833   14.8639 H      32  UNL32       0.0428
    265 H          11.9961   16.7502   15.3030 H      32  UNL32       0.0428
    266 S          12.5825   19.5083    2.3435 S.O2   37  UNL37       0.1638
    267 S          14.3862   17.2568    2.4988 S.O2   37  UNL37       0.1638
    268 F          10.3448   18.1370    1.8414 F      37  UNL37      -0.1492
    269 F          10.7112   19.8438    0.4893 F      37  UNL37      -0.1492
    270 F          11.8291   17.9716    0.2293 F      37  UNL37      -0.1492
    271 F          14.1495   14.6265    2.0707 F      37  UNL37      -0.1492
    272 F          13.2178   15.2977    3.9471 F      37  UNL37      -0.1492
    273 F          12.2298   15.6769    2.0110 F      37  UNL37      -0.1492
    274 O          13.4518   20.3356    1.4931 O.2    37  UNL37      -0.1468
    275 O          11.7477   20.1775    3.3300 O.2    37  UNL37      -0.1468
    276 O          15.4451   17.0816    3.4889 O.2    37  UNL37      -0.1468
    277 O          14.7278   17.3722    1.0880 O.2    37  UNL37      -0.1468
    278 N          13.2677   18.2642    3.0657 N.3    37  UNL37       0.0775
    279 C          11.3056   18.8124    1.1528 C.3    37  UNL37       0.5387
    280 C          13.4323   15.6345    2.6426 C.3    37  UNL37       0.5387
    281 N           8.4082   10.0482   24.9971 N.2    38  UNL38      -0.1411
    282 N           7.1782   10.1690   26.8024 N.pl3  38  UNL38      -0.3160
    283 C          -0.3482   -5.3830   23.9716 C.3     8  UNL8        0.0172
    284 C           0.7272   -4.2982   23.8850 C.3     8  UNL8       -0.0210
    285 C          -4.6259   11.0952   25.1849 C.3    39  UNL39      -0.0531
    286 C           8.3801    9.7934   26.3183 C.2    38  UNL38       0.1066
    287 C          13.3287   -4.5717   24.6282 C.2    29  UNL29       0.1058
    288 C           6.4177   10.6710   25.7565 C.3    38  UNL38       0.0645
    289 C           1.4691   19.4578   11.6172 C.3    15  UNK15      -0.0653
    290 C           6.7752   10.1352   28.2185 C.3    38  UNL38       0.0019
    291 H          -6.0689    8.8309   24.3200 H      40  UNK40       0.0000
    292 H          -0.8157   -5.5733   22.9977 H       8  UNL8        0.0467
    293 H           5.1399    4.1215   10.1632 H       1  UNL1        0.0280
    294 H           1.4180   -4.6232   23.0900 H       8  UNL8        0.0319
    295 H          -5.2815   11.5528   25.9398 H      17  UNL17       0.0265
    296 H          -4.3128   10.1240   25.5978 H      17  UNL17       0.0265
    297 H           9.1753    9.3365   26.8943 H      38  UNL38       0.1018
    298 H           1.9622    3.2436   10.1349 H       1  UNL1        0.0793
    299 H           5.3977   11.0121   25.8906 H      38  UNL38       0.0538
    300 H           1.2018   20.4375   11.1971 H      15  UNK15       0.0230
    301 H           2.1842   18.9765   10.9348 H      15  UNK15       0.0230
    302 H           1.9976   19.6421   12.5628 H      15  UNK15       0.0230
    303 H           7.0629   11.0751   28.7034 H      38  UNL38       0.0428
    304 H           5.6879   10.0186   28.2760 H      38  UNL38       0.0428
    305 H           7.2598    9.2855   28.7151 H      38  UNL38       0.0428
    306 S           7.8462   12.0435   15.7556 S.O2   41  UNL41       0.1638
    307 S           9.6499    9.7920   15.9109 S.O2   41  UNL41       0.1638
    308 F           5.6085   10.6723   15.2535 F      41  UNL41      -0.1492
    309 F           5.9750   12.3791   13.9014 F      41  UNL41      -0.1492
    310 F           7.0929   10.5068   13.6414 F      41  UNL41      -0.1492
    311 F           9.4133    7.1618   15.4828 F      41  UNL41      -0.1492
    312 F           8.4815    7.8330   17.3592 F      41  UNL41      -0.1492
    313 F           7.4935    8.2121   15.4231 F      41  UNL41      -0.1492
    314 O           8.7156   12.8709   14.9052 O.2    41  UNL41      -0.1468
    315 O           7.0114   12.7128   16.7421 O.2    41  UNL41      -0.1468
    316 O          10.7088    9.6168   16.9010 O.2    41  UNL41      -0.1468
    317 O           9.9915    9.9075   14.5001 O.2    41  UNL41      -0.1468
    318 N           8.5314   10.7995   16.4778 N.3    41  UNL41       0.0775
    319 C           6.5693   11.3477   14.5649 C.3    41  UNL41       0.5387
    320 C           8.6961    8.1698   16.0547 C.3    41  UNL41       0.5387
@<TRIPOS>BOND
     1   101    89    1
     2   261   249    1
     3   181   169    1
     4    21     9    1
     5    20     9    1
     6   180   169    1
     7   260   249    1
     8   100    89    1
     9   249   262    1
    10    89   102    1
    11   169   182    1
    12     9    22    1
    13   270   279    1
    14   190   199    1
    15   110   119    1
    16    30    39    1
    17   189   199    1
    18   269   279    1
    19    29    39    1
    20   109   119    1
    21    37    27    2
    22   197   187    2
    23   277   267    2
    24   117   107    2
    25    39    28    1
    26    39    26    1
    27   199   188    1
    28   199   186    1
    29   279   268    1
    30   279   266    1
    31   119   108    1
    32   119   106    1
    33   194   186    2
    34   274   266    2
    35    34    26    2
    36   114   106    2
    37   273   280    1
    38    33    40    1
    39   113   120    1
    40   193   200    1
    41   271   280    1
    42   111   120    1
    43   191   200    1
    44    31    40    1
    45    26    38    1
    46    26    35    2
    47   266   278    1
    48   266   275    2
    49   186   198    1
    50   186   195    2
    51   106   118    1
    52   106   115    2
    53   187   200    1
    54   187   198    1
    55   187   196    2
    56    27    40    1
    57    27    38    1
    58    27    36    2
    59   107   120    1
    60   107   118    1
    61   107   116    2
    62   267   280    1
    63   267   278    1
    64   267   276    2
    65   120   112    1
    66   200   192    1
    67   280   272    1
    68    40    32    1
    69   252   243    1
    70    92    83    1
    71    12     3    1
    72   172   163    1
    73    14     4    1
    74    94    84    1
    75   254   244    1
    76   174   164    1
    77   218     7    1
    78   298    87    1
    79   213   164    1
    80   133    84    1
    81   293   244    1
    82    53     4    1
    83     4     3    1
    84   164   163    1
    85   244   243    1
    86   244   165    1
    87    84    83    1
    88    84     5    1
    89   243   171    1
    90   243     1    1
    91    83    11    1
    92    61    49    1
    93   141   129    1
    94   301   289    1
    95   221   209    1
    96   300   289    1
    97   220   209    1
    98   140   129    1
    99    60    49    1
   100    87     1    1
   101    87     8    2
   102   247   161    1
   103   247   168    2
   104   161   166    2
   105     1     6    1
   106    81    86    2
   107   241   246    2
   108   209   165    1
   109   209   222    1
   110    49     5    1
   111    49    62    1
   112   289   245    1
   113   289   302    1
   114   129    85    1
   115   129   142    1
   116   165   176    1
   117   165   175    1
   118    85    96    1
   119    85    95    1
   120     5    16    1
   121     5    15    1
   122   245   256    1
   123   245   255    1
   124    88    99    1
   125    88    82    1
   126     8    19    1
   127     8     2    1
   128   168   179    1
   129   168   162    1
   130   248   259    1
   131   248   242    1
   132   246   242    1
   133   246   257    1
   134    86    82    1
   135    86    97    1
   136   166   162    1
   137   166   177    1
   138     6     2    1
   139     6    17    1
   140   242   250    1
   141     2    10    1
   142   162   170    1
   143    82    90    1
   144   150   159    1
   145   310   319    1
   146   230   239    1
   147    70    79    1
   148    69    79    1
   149   229   239    1
   150   149   159    1
   151   309   319    1
   152    77    67    2
   153   317   307    2
   154   157   147    2
   155   237   227    2
   156    79    68    1
   157    79    66    1
   158   319   308    1
   159   319   306    1
   160   239   228    1
   161   239   226    1
   162   159   148    1
   163   159   146    1
   164   250   264    1
   165   250   263    1
   166   250   265    1
   167    90   104    1
   168    90   103    1
   169    90   105    1
   170    10    24    1
   171    10    23    1
   172    10    25    1
   173   170   184    1
   174   170   183    1
   175   170   185    1
   176    74    66    2
   177   314   306    2
   178   234   226    2
   179   154   146    2
   180    73    80    1
   181   153   160    1
   182   313   320    1
   183   233   240    1
   184    71    80    1
   185   151   160    1
   186   311   320    1
   187   231   240    1
   188   306   318    1
   189   306   315    2
   190   146   158    1
   191   146   155    2
   192    66    78    1
   193    66    75    2
   194   226   238    1
   195   226   235    2
   196   307   320    1
   197   307   318    1
   198   307   316    2
   199   147   160    1
   200   147   158    1
   201   147   156    2
   202    67    80    1
   203    67    78    1
   204    67    76    2
   205   227   240    1
   206   227   238    1
   207   227   236    2
   208   240   232    1
   209   320   312    1
   210    80    72    1
   211   160   152    1
   212   212   203    1
   213   132   123    1
   214   292   283    1
   215    52    43    1
   216   214   204    1
   217    54    44    1
   218   294   284    1
   219   134   124    1
   220   284   283    1
   221   284   205    1
   222   204   203    1
   223    44    43    1
   224   124   123    1
   225   124    45    1
   226   283   211    1
   227   283    41    1
   228   123    51    1
   229   287   201    1
   230   287   208    2
   231   127    41    1
   232   127    48    2
   233    41    46    1
   234   201   206    2
   235   121   126    2
   236   281   286    2
   237   205   216    1
   238   205   215    1
   239   125   136    1
   240   125   135    1
   241   285   296    1
   242   285   295    1
   243    45    56    1
   244    45    55    1
   245   288   299    1
   246   288   282    1
   247    48    59    1
   248    48    42    1
   249   128   139    1
   250   128   122    1
   251   208   219    1
   252   208   202    1
   253   206   202    1
   254   206   217    1
   255   286   282    1
   256   286   297    1
   257    46    42    1
   258    46    57    1
   259   126   122    1
   260   126   137    1
   261   122   130    1
   262   202   210    1
   263    42    50    1
   264   282   290    1
   265   210   224    1
   266   210   223    1
   267   210   225    1
   268    50    64    1
   269    50    63    1
   270    50    65    1
   271   130   144    1
   272   130   143    1
   273   130   145    1
   274   290   304    1
   275   290   303    1
   276   290   305    1
