@<TRIPOS>MOLECULE
Lattice="32.008514 0.0 0.0 -12.398571412536722 30.280097380190625 0.0 -9.472523905389702 -14.929449512315577 26.824217628519282" Properties=species:S:1:pos:R:3 i=177 E=-1723.1192297181 pbc="T T T"
 320 312 0 0 0
SMALL
GASTEIGER

@<TRIPOS>ATOM
      1 H           0.6207    2.0061   14.7998 H       1  UNL1        0.0428
      2 H           1.7797    3.3414   15.1032 H       1  UNL1        0.0428
      3 C           1.6588    2.3300   14.6980 C.3     1  UNL1        0.0020
      4 H           0.1287    3.0693   12.4699 H       1  UNL1        0.0793
      5 H           2.3210    1.6387   15.2293 H       1  UNL1        0.0428
      6 C           1.1559    2.7952   12.2739 C.2     1  UNL1        0.0072
      7 N           2.0032    2.3488   13.2720 N.pl3   1  UNL1       -0.3166
      8 O           4.2519    3.1639   16.9159 O.2     2  UNL2       -0.1468
      9 N           3.6761    4.8316   15.1944 N.3     2  UNL2        0.0775
     10 C           1.8929    2.8520   11.1224 C.2     1  UNL1        0.0074
     11 S           4.7659    3.7854   15.7064 S.O2    2  UNL2        0.1638
     12 C           3.2272    2.1483   12.7462 C.3     1  UNL1        0.1250
     13 H           4.1065    1.8565   13.3091 H       1  UNL1        0.0746
     14 H           1.6133    3.1622   10.1256 H       1  UNL1        0.0793
     15 N           3.1773    2.4458   11.4344 N.pl3   1  UNL1       -0.3135
     16 O           5.3498    2.9237   14.6741 O.2     2  UNL2       -0.1468
     17 H           5.8941    3.4008   12.5172 H       1  UNL1        0.0263
     18 C           4.2686    2.2683   10.4536 C.3     1  UNL1        0.0135
     19 H           3.7677    2.1626    9.4857 H       1  UNL1        0.0464
     20 H           4.7374    1.3020   10.6773 H       1  UNL1        0.0464
     21 C           6.3605    3.2989   11.5308 C.3     1  UNL1       -0.0545
     22 C           5.2965    3.4058   10.4311 C.3     1  UNL1       -0.0374
     23 H           6.8060    2.2943   11.5059 H       1  UNL1        0.0263
     24 H           5.7763    3.3758    9.4392 H       1  UNL1        0.0280
     25 F           5.8195    5.6839   17.2402 F       2  UNL2       -0.1492
     26 C           6.2166    4.8009   16.2890 C.3     2  UNL2        0.5387
     27 F           7.1532    3.9667   16.8286 F       2  UNL2       -0.1492
     28 F           6.7942    5.4846   15.2737 F       2  UNL2       -0.1492
     29 C           3.2298    7.3182   14.4556 C.3     2  UNL2        0.5387
     30 F           4.1687    7.7520   15.3349 F       2  UNL2       -0.1492
     31 F           3.1708    8.1888   13.4090 F       2  UNL2       -0.1492
     32 F           2.0188    7.3173   15.0698 F       2  UNL2       -0.1492
     33 H           8.1929    4.2700   12.2179 H       1  UNL1        0.0230
     34 H           7.0414    5.3706   11.4432 H       1  UNL1        0.0230
     35 C           7.4617    4.3568   11.4021 C.3     1  UNL1       -0.0652
     36 O           2.4648    5.2625   13.0215 O.2     2  UNL2       -0.1468
     37 S           3.6513    5.6240   13.7932 S.O2    2  UNL2        0.1638
     38 O           4.9205    5.7674   13.0907 O.2     2  UNL2       -0.1468
     39 H           8.0137    4.2402   10.4582 H       1  UNL1        0.0230
     40 H           4.7791    4.3740   10.4927 H       1  UNL1        0.0280
     41 H          -4.1156   -5.4587   28.2119 H       3  UNL3        0.0428
     42 H          -2.9565   -4.1233   28.5153 H       3  UNL3        0.0428
     43 C          -3.0775   -5.1347   28.1101 C.3     3  UNL3        0.0020
     44 H          -4.6076   -4.3954   25.8820 H       3  UNL3        0.0793
     45 H          -2.4152   -5.8260   28.6414 H       3  UNL3        0.0428
     46 C          -3.5804   -4.6695   25.6860 C.2     3  UNL3        0.0072
     47 N          -2.7331   -5.1159   26.6841 N.pl3   3  UNL3       -0.3166
     48 O          -0.4843   -4.3008   30.3280 O.2     4  UNL4       -0.1468
     49 N          -1.0601   -2.6331   28.6065 N.3     4  UNL4        0.0775
     50 C          -2.8434   -4.6128   24.5345 C.2     3  UNL3        0.0074
     51 S           0.0297   -3.6793   29.1185 S.O2    4  UNL4        0.1638
     52 C          -1.5091   -5.3164   26.1583 C.3     3  UNL3        0.1250
     53 H          -0.6298   -5.6082   26.7213 H       3  UNL3        0.0746
     54 H          -3.1230   -4.3026   23.5377 H       3  UNL3        0.0793
     55 N          -1.5590   -5.0190   24.8465 N.pl3   3  UNL3       -0.3135
     56 O           0.6136   -4.5410   28.0862 O.2     4  UNL4       -0.1468
     57 H           1.1579   -4.0639   25.9293 H       3  UNL3        0.0263
     58 C          -0.4676   -5.1965   23.8657 C.3     3  UNL3        0.0135
     59 H          -0.9686   -5.3022   22.8978 H       3  UNL3        0.0464
     60 H           0.0011   -6.1627   24.0894 H       3  UNL3        0.0464
     61 C           1.6243   -4.1658   24.9429 C.3     3  UNL3       -0.0545
     62 C           0.5603   -4.0589   23.8432 C.3     3  UNL3       -0.0374
     63 H           2.0697   -5.1704   24.9180 H       3  UNL3        0.0263
     64 H           1.0400   -4.0889   22.8513 H       3  UNL3        0.0280
     65 F           1.0833   -1.7809   30.6523 F       4  UNL4       -0.1492
     66 C           1.4803   -2.6638   29.7011 C.3     4  UNL4        0.5387
     67 F           2.4169   -3.4980   30.2407 F       4  UNL4       -0.1492
     68 F           2.0580   -1.9802   28.6858 F       4  UNL4       -0.1492
     69 C          -1.5065   -0.1466   27.8677 C.3     4  UNL4        0.5387
     70 F          -0.5675    0.2873   28.7470 F       4  UNL4       -0.1492
     71 F          -1.5655    0.7240   26.8211 F       4  UNL4       -0.1492
     72 F          -2.7175   -0.1474   28.4819 F       4  UNL4       -0.1492
     73 H           3.4566   -3.1947   25.6300 H       3  UNL3        0.0230
     74 H           2.3051   -2.0942   24.8553 H       3  UNL3        0.0230
     75 C           2.7254   -3.1080   24.8142 C.3     3  UNL3       -0.0652
     76 O          -2.2715   -2.2022   26.4336 O.2     4  UNL4       -0.1468
     77 S          -1.0849   -1.8408   27.2053 S.O2    4  UNL4        0.1638
     78 O           0.1843   -1.6973   26.5028 O.2     4  UNL4       -0.1468
     79 H           3.2775   -3.2245   23.8703 H       3  UNL3        0.0230
     80 H           0.0428   -3.0907   23.9048 H       3  UNL3        0.0280
     81 H          -5.5786   17.1461   14.7998 H       5  UNL5        0.0428
     82 H          -4.4196   18.4815   15.1032 H       5  UNL5        0.0428
     83 C          -4.5405   17.4700   14.6980 C.3     5  UNL5        0.0020
     84 H          -6.0706   18.2093   12.4699 H       5  UNL5        0.0793
     85 H          -3.8783   16.7787   15.2293 H       5  UNL5        0.0428
     86 C          -5.0434   17.9352   12.2739 C.2     5  UNL5        0.0072
     87 N          -4.1961   17.4889   13.2720 N.pl3   5  UNL5       -0.3166
     88 O          -1.9474   18.3039   16.9159 O.2     6  UNL6       -0.1468
     89 N          -2.5231   19.9717   15.1944 N.3     6  UNL6        0.0775
     90 C          -4.3064   17.9920   11.1224 C.2     5  UNL5        0.0074
     91 S          -1.4333   18.9255   15.7064 S.O2    6  UNL6        0.1638
     92 C          -2.9721   17.2883   12.7462 C.3     5  UNL5        0.1250
     93 H          -2.0928   16.9966   13.3091 H       5  UNL5        0.0746
     94 H          -4.5860   18.3022   10.1256 H       5  UNL5        0.0793
     95 N          -3.0220   17.5858   11.4344 N.pl3   5  UNL5       -0.3135
     96 O          -0.8494   18.0637   14.6741 O.2     6  UNL6       -0.1468
     97 H          -0.3051   18.5409   12.5172 H       5  UNL5        0.0263
     98 C          -1.9307   17.4083   10.4536 C.3     5  UNL5        0.0135
     99 H          -2.4316   17.3026    9.4857 H       5  UNL5        0.0464
    100 H          -1.4619   16.4421   10.6773 H       5  UNL5        0.0464
    101 C           0.1613   18.4390   11.5308 C.3     5  UNL5       -0.0545
    102 C          -0.9027   18.5459   10.4311 C.3     5  UNL5       -0.0374
    103 H           0.6067   17.4344   11.5059 H       5  UNL5        0.0263
    104 H          -0.4230   18.5159    9.4392 H       5  UNL5        0.0280
    105 F          -0.3797   20.8239   17.2402 F       6  UNL6       -0.1492
    106 C           0.0173   19.9410   16.2890 C.3     6  UNL6        0.5387
    107 F           0.9539   19.1068   16.8286 F       6  UNL6       -0.1492
    108 F           0.5949   20.6246   15.2737 F       6  UNL6       -0.1492
    109 C          -2.9695   22.4582   14.4556 C.3     6  UNL6        0.5387
    110 F          -2.0306   22.8920   15.3349 F       6  UNL6       -0.1492
    111 F          -3.0285   23.3288   13.4090 F       6  UNL6       -0.1492
    112 F          -4.1805   22.4574   15.0698 F       6  UNL6       -0.1492
    113 H           1.9936   19.4101   12.2179 H       5  UNL5        0.0230
    114 H           0.8421   20.5106   11.4432 H       5  UNL5        0.0230
    115 C           1.2624   19.4968   11.4021 C.3     5  UNL5       -0.0652
    116 O          -3.7345   20.4026   13.0215 O.2     6  UNL6       -0.1468
    117 S          -2.5480   20.7640   13.7932 S.O2    6  UNL6        0.1638
    118 O          -1.2788   20.9074   13.0907 O.2     6  UNL6       -0.1468
    119 H           1.8144   19.3803   10.4582 H       5  UNL5        0.0230
    120 H          -1.4202   19.5141   10.4927 H       5  UNL5        0.0280
    121 H         -10.3149    9.6814   28.2119 H       7  UNL7        0.0428
    122 H          -9.1558   11.0168   28.5153 H       7  UNL7        0.0428
    123 C          -9.2768   10.0053   28.1101 C.3     7  UNL7        0.0020
    124 H         -10.8069   10.7446   25.8820 H       7  UNL7        0.0793
    125 H          -8.6145    9.3140   28.6414 H       7  UNL7        0.0428
    126 C          -9.7797   10.4705   25.6860 C.2     7  UNL7        0.0072
    127 N          -8.9324   10.0242   26.6841 N.pl3   7  UNL7       -0.3166
    128 O          -6.6836   10.8392   30.3280 O.2     8  UNL8       -0.1468
    129 N          -7.2594   12.5070   28.6065 N.3     8  UNL8        0.0775
    130 C          -9.0427   10.5273   24.5345 C.2     7  UNL7        0.0074
    131 S          -6.1696   11.4608   29.1185 S.O2    8  UNL8        0.1638
    132 C          -7.7084    9.8236   26.1583 C.3     7  UNL7        0.1250
    133 H          -6.8291    9.5318   26.7213 H       7  UNL7        0.0746
    134 H          -9.3223   10.8375   23.5377 H       7  UNL7        0.0793
    135 N          -7.7583   10.1211   24.8465 N.pl3   7  UNL7       -0.3135
    136 O          -5.5857   10.5990   28.0862 O.2     8  UNL8       -0.1468
    137 H          -5.0414   11.0762   25.9293 H       7  UNL7        0.0263
    138 C          -6.6669    9.9436   23.8657 C.3     7  UNL7        0.0135
    139 H          -7.1679    9.8379   22.8978 H       7  UNL7        0.0464
    140 H          -6.1982    8.9774   24.0894 H       7  UNL7        0.0464
    141 C          -4.5750   10.9743   24.9429 C.3     7  UNL7       -0.0545
    142 C          -5.6390   11.0812   23.8432 C.3     7  UNL7       -0.0374
    143 H          -4.1296    9.9697   24.9180 H       7  UNL7        0.0263
    144 H          -5.1592   11.0512   22.8513 H       7  UNL7        0.0280
    145 F          -5.1160   13.3592   30.6523 F       8  UNL8       -0.1492
    146 C          -4.7190   12.4763   29.7011 C.3     8  UNL8        0.5387
    147 F          -3.7823   11.6421   30.2407 F       8  UNL8       -0.1492
    148 F          -4.1413   13.1599   28.6858 F       8  UNL8       -0.1492
    149 C          -7.7058   14.9935   27.8677 C.3     8  UNL8        0.5387
    150 F          -6.7668   15.4273   28.7470 F       8  UNL8       -0.1492
    151 F          -7.7647   15.8641   26.8211 F       8  UNL8       -0.1492
    152 F          -8.9168   14.9926   28.4819 F       8  UNL8       -0.1492
    153 H          -2.7427   11.9454   25.6300 H       7  UNL7        0.0230
    154 H          -3.8942   13.0459   24.8553 H       7  UNL7        0.0230
    155 C          -3.4738   12.0321   24.8142 C.3     7  UNL7       -0.0652
    156 O          -8.4708   12.9378   26.4336 O.2     8  UNL8       -0.1468
    157 S          -7.2842   13.2993   27.2053 S.O2    8  UNL8        0.1638
    158 O          -6.0150   13.4427   26.5028 O.2     8  UNL8       -0.1468
    159 H          -2.9218   11.9155   23.8703 H       7  UNL7        0.0230
    160 H          -6.1565   12.0494   23.9048 H       7  UNL7        0.0280
    161 H          16.6249    2.0061   14.7998 H       9  UNL9        0.0428
    162 H          17.7840    3.3414   15.1032 H       9  UNL9        0.0428
    163 C          17.6630    2.3300   14.6980 C.3     9  UNL9        0.0020
    164 H          16.1329    3.0693   12.4699 H       9  UNL9        0.0793
    165 H          18.3253    1.6387   15.2293 H       9  UNL9        0.0428
    166 C          17.1602    2.7952   12.2739 C.2     9  UNL9        0.0072
    167 N          18.0074    2.3488   13.2720 N.pl3   9  UNL9       -0.3166
    168 O          20.2562    3.1639   16.9159 O.2    10  UNL10      -0.1468
    169 N          19.6804    4.8316   15.1944 N.3    10  UNL10       0.0775
    170 C          17.8971    2.8520   11.1224 C.2     9  UNL9        0.0074
    171 S          20.7702    3.7854   15.7064 S.O2   10  UNL10       0.1638
    172 C          19.2314    2.1483   12.7462 C.3     9  UNL9        0.1250
    173 H          20.1107    1.8565   13.3091 H       9  UNL9        0.0746
    174 H          17.6175    3.1622   10.1256 H       9  UNL9        0.0793
    175 N          19.1815    2.4458   11.4344 N.pl3   9  UNL9       -0.3135
    176 O          21.3541    2.9237   14.6741 O.2    10  UNL10      -0.1468
    177 H          21.8984    3.4008   12.5172 H       9  UNL9        0.0263
    178 C          20.2729    2.2683   10.4536 C.3     9  UNL9        0.0135
    179 H          19.7719    2.1626    9.4857 H       9  UNL9        0.0464
    180 H          20.7416    1.3020   10.6773 H       9  UNL9        0.0464
    181 C          22.3648    3.2989   11.5308 C.3     9  UNL9       -0.0545
    182 C          21.3008    3.4058   10.4311 C.3     9  UNL9       -0.0374
    183 H          22.8102    2.2943   11.5059 H       9  UNL9        0.0263
    184 H          21.7806    3.3758    9.4392 H       9  UNL9        0.0280
    185 F          21.8238    5.6839   17.2402 F      10  UNL10      -0.1492
    186 C          22.2208    4.8009   16.2890 C.3    10  UNL10       0.5387
    187 F          23.1575    3.9667   16.8286 F      10  UNL10      -0.1492
    188 F          22.7985    5.4846   15.2737 F      10  UNL10      -0.1492
    189 C          19.2340    7.3182   14.4556 C.3    10  UNL10       0.5387
    190 F          20.1730    7.7520   15.3349 F      10  UNL10      -0.1492
    191 F          19.1751    8.1888   13.4090 F      10  UNL10      -0.1492
    192 F          18.0230    7.3173   15.0698 F      10  UNL10      -0.1492
    193 H          24.1971    4.2700   12.2179 H       9  UNL9        0.0230
    194 H          23.0457    5.3706   11.4432 H       9  UNL9        0.0230
    195 C          23.4660    4.3568   11.4021 C.3     9  UNL9       -0.0652
    196 O          18.4690    5.2625   13.0215 O.2    10  UNL10      -0.1468
    197 S          19.6556    5.6240   13.7932 S.O2   10  UNL10       0.1638
    198 O          20.9248    5.7674   13.0907 O.2    10  UNL10      -0.1468
    199 H          24.0180    4.2402   10.4582 H       9  UNL9        0.0230
    200 H          20.7833    4.3740   10.4927 H       9  UNL9        0.0280
    201 H          11.8887   -5.4587   28.2119 H      11  UNL11       0.0428
    202 H          13.0477   -4.1233   28.5153 H      11  UNL11       0.0428
    203 C          12.9267   -5.1347   28.1101 C.3    11  UNL11       0.0020
    204 H          11.3967   -4.3954   25.8820 H      11  UNL11       0.0793
    205 H          13.5890   -5.8260   28.6414 H      11  UNL11       0.0428
    206 C          12.4239   -4.6695   25.6860 C.2    11  UNL11       0.0072
    207 N          13.2712   -5.1159   26.6841 N.pl3  11  UNL11      -0.3166
    208 O          15.5199   -4.3008   30.3280 O.2    12  UNL12      -0.1468
    209 N          14.9441   -2.6331   28.6065 N.3    12  UNL12       0.0775
    210 C          13.1609   -4.6128   24.5345 C.2    11  UNL11       0.0074
    211 S          16.0339   -3.6793   29.1185 S.O2   12  UNL12       0.1638
    212 C          14.4952   -5.3164   26.1583 C.3    11  UNL11       0.1250
    213 H          15.3745   -5.6082   26.7213 H      11  UNL11       0.0746
    214 H          12.8813   -4.3026   23.5377 H      11  UNL11       0.0793
    215 N          14.4453   -5.0190   24.8465 N.pl3  11  UNL11      -0.3135
    216 O          16.6178   -4.5410   28.0862 O.2    12  UNL12      -0.1468
    217 H          17.1621   -4.0639   25.9293 H      11  UNL11       0.0263
    218 C          15.5366   -5.1965   23.8657 C.3    11  UNL11       0.0135
    219 H          15.0357   -5.3022   22.8978 H      11  UNL11       0.0464
    220 H          16.0054   -6.1627   24.0894 H      11  UNL11       0.0464
    221 C          17.6285   -4.1658   24.9429 C.3    11  UNL11      -0.0545
    222 C          16.5645   -4.0589   23.8432 C.3    11  UNL11      -0.0374
    223 H          18.0740   -5.1704   24.9180 H      11  UNL11       0.0263
    224 H          17.0443   -4.0889   22.8513 H      11  UNL11       0.0280
    225 F          17.0875   -1.7809   30.6523 F      12  UNL12      -0.1492
    226 C          17.4846   -2.6638   29.7011 C.3    12  UNL12       0.5387
    227 F          18.4212   -3.4980   30.2407 F      12  UNL12      -0.1492
    228 F          18.0622   -1.9802   28.6858 F      12  UNL12      -0.1492
    229 C          14.4978   -0.1466   27.8677 C.3    12  UNL12       0.5387
    230 F          15.4367    0.2873   28.7470 F      12  UNL12      -0.1492
    231 F          14.4388    0.7240   26.8211 F      12  UNL12      -0.1492
    232 F          13.2868   -0.1474   28.4819 F      12  UNL12      -0.1492
    233 H          19.4609   -3.1947   25.6300 H      11  UNL11       0.0230
    234 H          18.3094   -2.0942   24.8553 H      11  UNL11       0.0230
    235 C          18.7297   -3.1080   24.8142 C.3    11  UNL11      -0.0652
    236 O          13.7328   -2.2022   26.4336 O.2    12  UNL12      -0.1468
    237 S          14.9193   -1.8408   27.2053 S.O2   12  UNL12       0.1638
    238 O          16.1885   -1.6973   26.5028 O.2    12  UNL12      -0.1468
    239 H          19.2817   -3.2245   23.8703 H      11  UNL11       0.0230
    240 H          16.0470   -3.0907   23.9048 H      11  UNL11       0.0280
    241 H          10.4256   17.1461   14.7998 H      13  UNL13       0.0428
    242 H          11.5847   18.4815   15.1032 H      13  UNL13       0.0428
    243 C          11.4637   17.4700   14.6980 C.3    13  UNL13       0.0020
    244 H           9.9336   18.2093   12.4699 H      13  UNL13       0.0793
    245 H          12.1260   16.7787   15.2293 H      13  UNL13       0.0428
    246 C          10.9609   17.9352   12.2739 C.2    13  UNL13       0.0072
    247 N          11.8081   17.4889   13.2720 N.pl3  13  UNL13      -0.3166
    248 O          14.0569   18.3039   16.9159 O.2    14  UNL14      -0.1468
    249 N          13.4811   19.9717   15.1944 N.3    14  UNL14       0.0775
    250 C          11.6978   17.9920   11.1224 C.2    13  UNL13       0.0074
    251 S          14.5709   18.9255   15.7064 S.O2   14  UNL14       0.1638
    252 C          13.0321   17.2883   12.7462 C.3    13  UNL13       0.1250
    253 H          13.9114   16.9966   13.3091 H      13  UNL13       0.0746
    254 H          11.4183   18.3022   10.1256 H      13  UNL13       0.0793
    255 N          12.9822   17.5858   11.4344 N.pl3  13  UNL13      -0.3135
    256 O          15.1548   18.0637   14.6741 O.2    14  UNL14      -0.1468
    257 H          15.6991   18.5409   12.5172 H      13  UNL13       0.0263
    258 C          14.0736   17.4083   10.4536 C.3    13  UNL13       0.0135
    259 H          13.5726   17.3026    9.4857 H      13  UNL13       0.0464
    260 H          14.5424   16.4421   10.6773 H      13  UNL13       0.0464
    261 C          16.1655   18.4390   11.5308 C.3    13  UNL13      -0.0545
    262 C          15.1015   18.5459   10.4311 C.3    13  UNL13      -0.0374
    263 H          16.6110   17.4344   11.5059 H      13  UNL13       0.0263
    264 H          15.5813   18.5159    9.4392 H      13  UNL13       0.0280
    265 F          15.6245   20.8239   17.2402 F      14  UNL14      -0.1492
    266 C          16.0216   19.9410   16.2890 C.3    14  UNL14       0.5387
    267 F          16.9582   19.1068   16.8286 F      14  UNL14      -0.1492
    268 F          16.5992   20.6246   15.2737 F      14  UNL14      -0.1492
    269 C          13.0347   22.4582   14.4556 C.3    14  UNL14       0.5387
    270 F          13.9737   22.8920   15.3349 F      14  UNL14      -0.1492
    271 F          12.9758   23.3288   13.4090 F      14  UNL14      -0.1492
    272 F          11.8238   22.4574   15.0698 F      14  UNL14      -0.1492
    273 H          17.9979   19.4101   12.2179 H      13  UNL13       0.0230
    274 H          16.8464   20.5106   11.4432 H      13  UNL13       0.0230
    275 C          17.2667   19.4968   11.4021 C.3    13  UNL13      -0.0652
    276 O          12.2697   20.4026   13.0215 O.2    14  UNL14      -0.1468
    277 S          13.4563   20.7640   13.7932 S.O2   14  UNL14       0.1638
    278 O          14.7255   20.9074   13.0907 O.2    14  UNL14      -0.1468
    279 H          17.8187   19.3803   10.4582 H      13  UNL13       0.0230
    280 H          14.5840   19.5141   10.4927 H      13  UNL13       0.0280
    281 H           5.6894    9.6814   28.2119 H      15  UNL15       0.0428
    282 H           6.8484   11.0168   28.5153 H      15  UNL15       0.0428
    283 C           6.7275   10.0053   28.1101 C.3    15  UNL15       0.0020
    284 H           5.1974   10.7446   25.8820 H      15  UNL15       0.0793
    285 H           7.3897    9.3140   28.6414 H      15  UNL15       0.0428
    286 C           6.2246   10.4705   25.6860 C.2    15  UNL15       0.0072
    287 N           7.0719   10.0242   26.6841 N.pl3  15  UNL15      -0.3166
    288 O           9.3206   10.8392   30.3280 O.2    16  UNL16      -0.1468
    289 N           8.7449   12.5070   28.6065 N.3    16  UNL16       0.0775
    290 C           6.9616   10.5273   24.5345 C.2    15  UNL15       0.0074
    291 S           9.8346   11.4608   29.1185 S.O2   16  UNL16       0.1638
    292 C           8.2959    9.8236   26.1583 C.3    15  UNL15       0.1250
    293 H           9.1752    9.5318   26.7213 H      15  UNL15       0.0746
    294 H           6.6820   10.8375   23.5377 H      15  UNL15       0.0793
    295 N           8.2460   10.1211   24.8465 N.pl3  15  UNL15      -0.3135
    296 O          10.4186   10.5990   28.0862 O.2    16  UNL16      -0.1468
    297 H          10.9628   11.0762   25.9293 H      15  UNL15       0.0263
    298 C           9.3373    9.9436   23.8657 C.3    15  UNL15       0.0135
    299 H           8.8364    9.8379   22.8978 H      15  UNL15       0.0464
    300 H           9.8061    8.9774   24.0894 H      15  UNL15       0.0464
    301 C          11.4293   10.9743   24.9429 C.3    15  UNL15      -0.0545
    302 C          10.3652   11.0812   23.8432 C.3    15  UNL15      -0.0374
    303 H          11.8747    9.9697   24.9180 H      15  UNL15       0.0263
    304 H          10.8450   11.0512   22.8513 H      15  UNL15       0.0280
    305 F          10.8882   13.3592   30.6523 F      16  UNL16      -0.1492
    306 C          11.2853   12.4763   29.7011 C.3    16  UNL16       0.5387
    307 F          12.2219   11.6421   30.2407 F      16  UNL16      -0.1492
    308 F          11.8629   13.1599   28.6858 F      16  UNL16      -0.1492
    309 C           8.2985   14.9935   27.8677 C.3    16  UNL16       0.5387
    310 F           9.2374   15.4273   28.7470 F      16  UNL16      -0.1492
    311 F           8.2395   15.8641   26.8211 F      16  UNL16      -0.1492
    312 F           7.0875   14.9926   28.4819 F      16  UNL16      -0.1492
    313 H          13.2616   11.9454   25.6300 H      15  UNL15       0.0230
    314 H          12.1101   13.0459   24.8553 H      15  UNL15       0.0230
    315 C          12.5304   12.0321   24.8142 C.3    15  UNL15      -0.0652
    316 O           7.5335   12.9378   26.4336 O.2    16  UNL16      -0.1468
    317 S           8.7200   13.2993   27.2053 S.O2   16  UNL16       0.1638
    318 O           9.9892   13.4427   26.5028 O.2    16  UNL16      -0.1468
    319 H          13.0824   11.9155   23.8703 H      15  UNL15       0.0230
    320 H           9.8478   12.0494   23.9048 H      15  UNL15       0.0280
@<TRIPOS>BOND
     1    24    22    1
     2   184   182    1
     3   104   102    1
     4   264   262    1
     5    19    18    1
     6    99    98    1
     7   179   178    1
     8   259   258    1
     9    14    10    1
    10    94    90    1
    11   174   170    1
    12   254   250    1
    13   102    98    1
    14   102   120    1
    15   102   101    1
    16   262   258    1
    17   262   280    1
    18   262   261    1
    19   182   178    1
    20   182   200    1
    21   182   181    1
    22    22    18    1
    23    22    40    1
    24    22    21    1
    25   258   260    1
    26   258   255    1
    27    18    20    1
    28    18    15    1
    29   178   180    1
    30   178   175    1
    31    98   100    1
    32    98    95    1
    33   279   275    1
    34    39    35    1
    35   119   115    1
    36   199   195    1
    37    90    95    1
    38    90    86    2
    39    10    15    1
    40    10     6    2
    41   250   255    1
    42   250   246    2
    43   170   175    1
    44   170   166    2
    45   115   114    1
    46   115   101    1
    47   115   113    1
    48   195   194    1
    49   195   181    1
    50   195   193    1
    51    35    34    1
    52    35    21    1
    53    35    33    1
    54   275   274    1
    55   275   261    1
    56   275   273    1
    57   175   172    1
    58    15    12    1
    59   255   252    1
    60    95    92    1
    61   103   101    1
    62   183   181    1
    63    23    21    1
    64   263   261    1
    65    21    17    1
    66   181   177    1
    67   101    97    1
    68   261   257    1
    69   166   164    1
    70   166   167    1
    71    86    84    1
    72    86    87    1
    73   246   244    1
    74   246   247    1
    75     6     4    1
    76     6     7    1
    77   172   167    1
    78   172   173    1
    79    12     7    1
    80    12    13    1
    81   252   247    1
    82   252   253    1
    83    92    87    1
    84    92    93    1
    85   196   197    2
    86   276   277    2
    87    36    37    2
    88   116   117    2
    89   278   277    2
    90    38    37    2
    91   198   197    2
    92   118   117    2
    93     7     3    1
    94   167   163    1
    95   247   243    1
    96    87    83    1
    97    31    29    1
    98   111   109    1
    99   191   189    1
   100   271   269    1
   101    37    29    1
   102    37     9    1
   103   197   189    1
   104   197   169    1
   105   117   109    1
   106   117    89    1
   107   277   269    1
   108   277   249    1
   109   269   272    1
   110   269   270    1
   111   189   192    1
   112   189   190    1
   113   109   112    1
   114   109   110    1
   115    29    32    1
   116    29    30    1
   117   176   171    2
   118    16    11    2
   119    96    91    2
   120   256   251    2
   121   243   241    1
   122   243   242    1
   123   243   245    1
   124   163   161    1
   125   163   162    1
   126   163   165    1
   127    83    81    1
   128    83    82    1
   129    83    85    1
   130     3     1    1
   131     3     2    1
   132     3     5    1
   133   249   251    1
   134    89    91    1
   135     9    11    1
   136   169   171    1
   137   188   186    1
   138   268   266    1
   139    28    26    1
   140   108   106    1
   141    11    26    1
   142    11     8    2
   143   171   186    1
   144   171   168    2
   145    91   106    1
   146    91    88    2
   147   251   266    1
   148   251   248    2
   149   106   107    1
   150   106   105    1
   151   186   187    1
   152   186   185    1
   153   266   267    1
   154   266   265    1
   155    26    27    1
   156    26    25    1
   157   144   142    1
   158   304   302    1
   159    64    62    1
   160   224   222    1
   161   219   218    1
   162   139   138    1
   163   299   298    1
   164    59    58    1
   165    54    50    1
   166   134   130    1
   167   214   210    1
   168   294   290    1
   169    62    58    1
   170    62    80    1
   171    62    61    1
   172   302   298    1
   173   302   320    1
   174   302   301    1
   175   142   138    1
   176   142   160    1
   177   142   141    1
   178   222   218    1
   179   222   240    1
   180   222   221    1
   181   298   300    1
   182   298   295    1
   183   218   220    1
   184   218   215    1
   185    58    60    1
   186    58    55    1
   187   138   140    1
   188   138   135    1
   189    79    75    1
   190   159   155    1
   191   319   315    1
   192   239   235    1
   193    50    55    1
   194    50    46    2
   195   210   215    1
   196   210   206    2
   197   290   295    1
   198   290   286    2
   199   130   135    1
   200   130   126    2
   201    75    74    1
   202    75    61    1
   203    75    73    1
   204   155   154    1
   205   155   141    1
   206   155   153    1
   207   235   234    1
   208   235   221    1
   209   235   233    1
   210   315   314    1
   211   315   301    1
   212   315   313    1
   213   215   212    1
   214    55    52    1
   215   135   132    1
   216   295   292    1
   217   143   141    1
   218   303   301    1
   219   223   221    1
   220    63    61    1
   221   221   217    1
   222   141   137    1
   223    61    57    1
   224   301   297    1
   225    46    44    1
   226    46    47    1
   227   206   204    1
   228   206   207    1
   229   286   284    1
   230   286   287    1
   231   126   124    1
   232   126   127    1
   233   132   127    1
   234   132   133    1
   235   212   207    1
   236   212   213    1
   237    52    47    1
   238    52    53    1
   239   292   287    1
   240   292   293    1
   241    76    77    2
   242   156   157    2
   243   236   237    2
   244   316   317    2
   245   158   157    2
   246   318   317    2
   247   238   237    2
   248    78    77    2
   249   207   203    1
   250   127   123    1
   251    47    43    1
   252   287   283    1
   253    71    69    1
   254   151   149    1
   255   231   229    1
   256   311   309    1
   257    77    69    1
   258    77    49    1
   259   317   309    1
   260   317   289    1
   261   237   229    1
   262   237   209    1
   263   157   149    1
   264   157   129    1
   265   309   312    1
   266   309   310    1
   267    69    72    1
   268    69    70    1
   269   229   232    1
   270   229   230    1
   271   149   152    1
   272   149   150    1
   273   296   291    2
   274    56    51    2
   275   216   211    2
   276   136   131    2
   277    43    41    1
   278    43    42    1
   279    43    45    1
   280   203   201    1
   281   203   202    1
   282   203   205    1
   283   283   281    1
   284   283   282    1
   285   283   285    1
   286   123   121    1
   287   123   122    1
   288   123   125    1
   289    49    51    1
   290   129   131    1
   291   289   291    1
   292   209   211    1
   293    68    66    1
   294   308   306    1
   295   228   226    1
   296   148   146    1
   297   291   306    1
   298   291   288    2
   299    51    66    1
   300    51    48    2
   301   131   146    1
   302   131   128    2
   303   211   226    1
   304   211   208    2
   305   146   147    1
   306   146   145    1
   307   226   227    1
   308   226   225    1
   309    66    67    1
   310    66    65    1
   311   306   307    1
   312   306   305    1
