@<TRIPOS>MOLECULE
Lattice="32.008514 0.0 0.0 -12.398571412536722 30.280097380190625 0.0 -9.472523905389702 -14.929449512315577 26.824217628519282" Properties=species:S:1:pos:R:3 i=53 E=-1471.8241695343 pbc="T T T"
 200 164 0 0 0
SMALL
GASTEIGER

@<TRIPOS>ATOM
      1 N           3.3455    2.3656   11.6600 N.pl3   1  UNL1       -0.3135
      2 N           2.1512    2.5350   13.4857 N.pl3   1  UNL1       -0.3166
      3 C          -5.4234  -13.0782   10.6234 C.3     1  UNL1       -0.0348
      4 C          -4.3506  -11.9948   10.5009 C.3     1  UNL1       -0.0494
      5 C          -9.6749    3.4125   11.7804 C.3     2  UNL2       -0.0559
      6 C           3.3460    2.1519   12.9888 C.3     1  UNL1        0.1250
      7 C           8.2550  -12.2728   11.2999 C.3     3  UNL3       -0.0309
      8 C           1.3664    3.0003   12.4409 C.2     1  UNL1        0.0072
      9 C          -3.5717   11.7512   -1.8316 C.3     4  UNL4       -0.0681
     10 C           1.7840    2.5523   14.9118 C.3     1  UNL1        0.0020
     11 H         -11.1357    1.1427   10.9804 H       2  UNL2        0.0265
     12 H          -5.9058  -13.2882    9.6612 H       1  UNL1        0.0306
     13 H           0.0565   -3.5786   -3.2231 H       5  UNK5        0.0000
     14 H          -3.6764  -12.3323    9.6968 H       1  UNL1        0.0268
     15 H         -10.3082    3.8941   12.5395 H       2  UNL2        0.0263
     16 H          -9.3665    2.4450   12.2054 H       2  UNL2        0.0263
     17 H           4.1580    1.7225   13.5628 H       1  UNL1        0.0746
     18 H          -3.1338   -4.4858   -3.1948 H       6  UNK6        0.0000
     19 H           0.3495    3.3458   12.5865 H       1  UNL1        0.0793
     20 H          -3.8341   12.7296   -2.2582 H       3  UNL3        0.0227
     21 H          -2.8831   11.2487   -2.5260 H       3  UNL3        0.0227
     22 H          -3.0151   11.9365   -0.9026 H       3  UNL3        0.0227
     23 H           2.1155    3.4944   15.3636 H       1  UNL1        0.0428
     24 H           0.6948    2.4743   14.9977 H       1  UNL1        0.0428
     25 H           2.2545    1.7001   15.4170 H       1  UNL1        0.0428
     26 N          -1.3908   -5.0992   25.0721 N.pl3   7  UNL7       -0.3058
     27 N          -2.5851   -4.9298   26.8978 N.pl3   7  UNL7       -0.3160
     28 C         -10.1596  -20.5429   24.0355 C.3     4  UNL4       -0.0309
     29 C          -9.0868  -19.4595   23.9130 C.3     4  UNL4       -0.0309
     30 C         -14.4111   -4.0523   25.1925 C.3     5  UNK5       -0.0497
     31 C          -1.3903   -5.3128   26.4009 C.3     7  UNL7        0.1255
     32 C           3.5188  -19.7376   24.7120 C.3     8  UNL8        0.0000
     33 C          -3.3699   -4.4644   25.8530 C.2     7  UNL7        0.0165
     34 C          -8.3080    4.2865   11.5805 C.3     2  UNL2       -0.0653
     35 C          -2.9523   -4.9124   28.3239 C.3     7  UNL7        0.0020
     36 H         -15.8719   -6.3220   24.3926 H       5  UNK5        0.0268
     37 H         -10.6421  -20.7529   23.0733 H       4  UNL4        0.0309
     38 H          -4.6798  -11.0434   10.1891 H       1  UNL1        0.0268
     39 H          -8.4127  -19.7971   23.1089 H       4  UNL4        0.0309
     40 H         -15.0444   -3.5706   25.9516 H       5  UNK5        0.0268
     41 H         -14.1028   -5.0197   25.6175 H       5  UNK5        0.0268
     42 H          -0.5783   -5.7423   26.9749 H       7  UNL7        0.0746
     43 H          -7.8701  -11.9505   10.2173 H       9  UNK9        0.0000
     44 H          -4.3867   -4.1189   25.9986 H       7  UNL7        0.0800
     45 H          -8.5703    5.2648   11.1539 H       2  UNL2        0.0230
     46 H          -7.6193    3.7840   10.8862 H       2  UNL2        0.0230
     47 H          -7.7513    4.4718   12.5095 H       2  UNL2        0.0230
     48 H          -2.6207   -3.9704   28.7757 H       7  UNL7        0.0428
     49 H          -4.0415   -4.9904   28.4098 H       7  UNL7        0.0428
     50 H          -2.4818   -5.7647   28.8291 H       7  UNL7        0.0428
     51 N          -2.8538   17.5056   11.6600 N.2    10  UNL10      -0.1411
     52 N          -4.0481   17.6750   13.4857 N.pl3  10  UNL10      -0.3160
     53 C         -11.6227    2.0619   10.6234 C.3     2  UNL2       -0.0531
     54 C         -10.5499    3.1453   10.5009 C.3     2  UNL2       -0.0533
     55 C         -15.8741   18.5525   11.7804 C.3     7  UNL7       -0.0562
     56 C          -2.8533   17.2920   12.9888 C.2    10  UNL10       0.1066
     57 C           2.0558    2.8672   11.2999 C.2     1  UNL1        0.0074
     58 C          -4.8329   18.1403   12.4409 C.3    10  UNL10       0.0645
     59 C          -9.7710   26.8913   -1.8316 C.3    11  UNL11      -0.0681
     60 C          -4.4153   17.6924   14.9118 C.3    10  UNL10       0.0019
     61 H         -17.3350   16.2827   10.9804 H      12  UNK12       0.0000
     62 H         -12.1051    1.8519    9.6612 H       2  UNL2        0.0265
     63 H          -6.1428   11.5614   -3.2231 H      13  UNK13       0.0000
     64 H          -9.8757    2.8077    9.6968 H       2  UNL2        0.0265
     65 H         -16.5075   19.0341   12.5395 H       7  UNL7        0.0263
     66 H         -15.5658   17.5850   12.2054 H       7  UNL7        0.0263
     67 H          -2.0413   16.8625   13.5628 H      10  UNL10       0.1018
     68 H          -9.3331   10.6542   -3.1948 H      14  UNK14       0.0000
     69 H          -5.8498   18.4859   12.5865 H      10  UNL10       0.0538
     70 H         -10.0334   27.8696   -2.2582 H       8  UNL8        0.0227
     71 H          -9.0824   26.3887   -2.5260 H       8  UNL8        0.0227
     72 H          -9.2144   27.0766   -0.9026 H       8  UNL8        0.0227
     73 H          -4.0838   18.6344   15.3636 H      10  UNL10       0.0428
     74 H          -5.5045   17.6144   14.9977 H      10  UNL10       0.0428
     75 H          -3.9448   16.8401   15.4170 H      10  UNL10       0.0428
     76 N          -7.5901   10.0409   25.0721 N.2    15  UNL15      -0.1411
     77 N          -8.7843   10.2103   26.8978 N.pl3  15  UNL15      -0.3160
     78 C         -16.3589   -5.4029   24.0355 C.3     5  UNK5       -0.0497
     79 C         -15.2861   -4.3195   23.9130 C.3     5  UNK5       -0.0382
     80 C         -20.6104   11.0878   25.1925 C.3    16  UNL16      -0.0531
     81 C          -7.5895    9.8273   26.4009 C.2    15  UNL15       0.1066
     82 C          -2.6805   -4.5975   24.7120 C.2     7  UNL7        0.0677
     83 C          -9.5692   10.6756   25.8530 C.3    15  UNL15       0.0645
     84 C         -14.5072   19.4265   11.5805 C.3     7  UNL7       -0.0653
     85 C          -9.1516   10.2277   28.3239 C.3    15  UNL15       0.0019
     86 H         -22.0712    8.8180   24.3926 H      17  UNK17       0.0000
     87 H         -16.8413   -5.6128   23.0733 H       5  UNK5        0.0268
     88 H         -10.8790    4.0967   10.1891 H       2  UNL2        0.0265
     89 H         -14.6119   -4.6570   23.1089 H       5  UNK5        0.0303
     90 H         -21.2437   11.5694   25.9516 H       9  UNK9        0.0265
     91 H         -20.3020   10.1203   25.6175 H       9  UNK9        0.0265
     92 H          -6.7776    9.3978   26.9749 H      15  UNL15       0.1018
     93 H         -14.0694    3.1895   10.2173 H      18  UNK18       0.0000
     94 H         -10.5860   11.0211   25.9986 H      15  UNL15       0.0538
     95 H         -14.7696   20.4049   11.1539 H       7  UNL7        0.0230
     96 H         -13.8186   18.9240   10.8862 H       7  UNL7        0.0230
     97 H         -13.9506   19.6118   12.5095 H       7  UNL7        0.0230
     98 H          -8.8200   11.1697   28.7757 H      15  UNL15       0.0428
     99 H         -10.2408   10.1497   28.4098 H      15  UNL15       0.0428
    100 H          -8.6811    9.3754   28.8291 H      15  UNL15       0.0428
    101 N          19.3497    2.3656   11.6600 N.2    19  UNL19      -0.2367
    102 N          18.1555    2.5350   13.4857 N.pl3  19  UNL19      -0.2985
    103 C          10.5809  -13.0782   10.6234 C.3    10  UNL10      -0.0348
    104 C          11.6537  -11.9948   10.5009 C.3    10  UNL10      -0.0494
    105 C           6.3294    3.4125   11.7804 C.3     1  UNL1       -0.0545
    106 C          19.3503    2.1519   12.9888 C.2    19  UNL19       0.0882
    107 C          24.2593  -12.2728   11.2999 C.3    20  UNL20       0.0000
    108 C          17.3706    3.0003   12.4409 C.2    19  UNL19       0.0248
    109 C          12.4326   11.7512   -1.8316 C.3    21  UNL21      -0.0681
    110 C          17.7882    2.5523   14.9118 C.3    19  UNL19       0.0061
    111 H           4.8686    1.1427   10.9804 H       1  UNL1        0.0464
    112 H          10.0985  -13.2882    9.6612 H      10  UNL10       0.0306
    113 H          16.0608   -3.5786   -3.2231 H      22  UNK22       0.0000
    114 H          12.3279  -12.3323    9.6968 H      10  UNL10       0.0268
    115 H           5.6961    3.8941   12.5395 H       1  UNL1        0.0263
    116 H           6.6378    2.4450   12.2054 H       1  UNL1        0.0263
    117 H          20.1623    1.7225   13.5628 H      19  UNL19       0.1002
    118 H          12.8705   -4.4858   -3.1948 H      23  UNK23       0.0000
    119 H          16.3538    3.3458   12.5865 H      19  UNL19       0.0806
    120 H          12.1702   12.7296   -2.2582 H      12  UNK12       0.0227
    121 H          13.1212   11.2487   -2.5260 H      12  UNK12       0.0227
    122 H          12.9892   11.9365   -0.9026 H      12  UNK12       0.0227
    123 H          18.1198    3.4944   15.3636 H      19  UNL19       0.0432
    124 H          16.6990    2.4743   14.9977 H      19  UNL19       0.0432
    125 H          18.2587    1.7001   15.4170 H      19  UNL19       0.0432
    126 N          14.6135   -5.0992   25.0721 N.2    24  UNL24      -0.2367
    127 N          13.4192   -4.9298   26.8978 N.pl3  24  UNL24      -0.2985
    128 C           5.8446  -20.5429   24.0355 C.3    13  UNK13      -0.0309
    129 C           6.9174  -19.4595   23.9130 C.3    13  UNK13      -0.0309
    130 C           1.5931   -4.0523   25.1925 C.3     7  UNL7       -0.0482
    131 C          14.6140   -5.3128   26.4009 C.2    24  UNL24       0.0882
    132 C          19.5230  -19.7376   24.7120 C.3    25  UNL25       0.0000
    133 C          12.6344   -4.4644   25.8530 C.2    24  UNL24       0.0248
    134 C           7.6963    4.2865   11.5805 C.3     1  UNL1       -0.0652
    135 C          13.0520   -4.9124   28.3239 C.3    24  UNL24       0.0061
    136 H           0.1323   -6.3220   24.3926 H       7  UNL7        0.0467
    137 H           5.3622  -20.7529   23.0733 H      13  UNK13       0.0309
    138 H          11.3245  -11.0434   10.1891 H      10  UNL10       0.0268
    139 H           7.5916  -19.7971   23.1089 H      13  UNK13       0.0309
    140 H           0.9598   -3.5706   25.9516 H       7  UNL7        0.0269
    141 H           1.9015   -5.0197   25.6175 H       7  UNL7        0.0269
    142 H          15.4260   -5.7423   26.9749 H      24  UNL24       0.1002
    143 H           8.1342  -11.9505   10.2173 H       2  UNL2        0.0309
    144 H          11.6175   -4.1189   25.9986 H      24  UNL24       0.0806
    145 H           7.4339    5.2648   11.1539 H       1  UNL1        0.0230
    146 H           8.3849    3.7840   10.8862 H       1  UNL1        0.0230
    147 H           8.2529    4.4718   12.5095 H       1  UNL1        0.0230
    148 H          13.3835   -3.9704   28.7757 H      24  UNL24       0.0432
    149 H          11.9628   -4.9904   28.4098 H      24  UNL24       0.0432
    150 H          13.5225   -5.7647   28.8291 H      24  UNL24       0.0432
    151 N          13.1505   17.5056   11.6600 N.2    26  UNL26      -0.1411
    152 N          11.9562   17.6750   13.4857 N.pl3  26  UNL26      -0.3160
    153 C           4.3816    2.0619   10.6234 C.3     1  UNL1        0.0135
    154 C           5.4544    3.1453   10.5009 C.3     1  UNL1       -0.0374
    155 C           0.1301   18.5525   11.7804 C.3    15  UNL15      -0.0562
    156 C          13.1510   17.2920   12.9888 C.2    26  UNL26       0.1066
    157 C          18.0600    2.8672   11.2999 C.2    19  UNL19       0.1058
    158 C          11.1713   18.1403   12.4409 C.3    26  UNL26       0.0645
    159 C           6.2333   26.8913   -1.8316 C.3    27  UNL27      -0.0681
    160 C          11.5889   17.6924   14.9118 C.3    26  UNL26       0.0019
    161 H          -1.3307   16.2827   10.9804 H      28  UNK28       0.0000
    162 H           3.8992    1.8519    9.6612 H       1  UNL1        0.0464
    163 H           9.8615   11.5614   -3.2231 H      29  UNK29       0.0000
    164 H           6.1286    2.8077    9.6968 H       1  UNL1        0.0280
    165 H          -0.5032   19.0341   12.5395 H      15  UNL15       0.0263
    166 H           0.4385   17.5850   12.2054 H      15  UNL15       0.0263
    167 H          13.9630   16.8625   13.5628 H      26  UNL26       0.1018
    168 H           6.6712   10.6542   -3.1948 H      30  UNK30       0.0000
    169 H          10.1545   18.4859   12.5865 H      26  UNL26       0.0538
    170 H           5.9709   27.8696   -2.2582 H      16  UNL16       0.0227
    171 H           6.9219   26.3887   -2.5260 H      16  UNL16       0.0227
    172 H           6.7899   27.0766   -0.9026 H      16  UNL16       0.0227
    173 H          11.9205   18.6344   15.3636 H      26  UNL26       0.0428
    174 H          10.4998   17.6144   14.9977 H      26  UNL26       0.0428
    175 H          12.0594   16.8401   15.4170 H      26  UNL26       0.0428
    176 N           8.4142   10.0409   25.0721 N.2    31  UNL31      -0.1411
    177 N           7.2199   10.2103   26.8978 N.pl3  31  UNL31      -0.3160
    178 C          -0.3547   -5.4029   24.0355 C.3     7  UNL7        0.0172
    179 C           0.7181   -4.3195   23.9130 C.3     7  UNL7       -0.0210
    180 C          -4.6062   11.0878   25.1925 C.3    32  UNL32      -0.0531
    181 C           8.4147    9.8273   26.4009 C.2    31  UNL31       0.1066
    182 C          13.3237   -4.5975   24.7120 C.2    24  UNL24       0.1058
    183 C           6.4351   10.6756   25.8530 C.3    31  UNL31       0.0645
    184 C           1.4970   19.4265   11.5805 C.3    15  UNL15      -0.0653
    185 C           6.8527   10.2277   28.3239 C.3    31  UNL31       0.0019
    186 H          -6.0670    8.8180   24.3926 H      33  UNK33       0.0000
    187 H          -0.8371   -5.6128   23.0733 H       7  UNL7        0.0467
    188 H           5.1252    4.0967   10.1891 H       1  UNL1        0.0280
    189 H           1.3923   -4.6570   23.1089 H       7  UNL7        0.0319
    190 H          -5.2395   11.5694   25.9516 H      17  UNK17       0.0265
    191 H          -4.2978   10.1203   25.6175 H      17  UNK17       0.0265
    192 H           9.2267    9.3978   26.9749 H      31  UNL31       0.1018
    193 H           1.9349    3.1895   10.2173 H       1  UNL1        0.0793
    194 H           5.4182   11.0211   25.9986 H      31  UNL31       0.0538
    195 H           1.2346   20.4049   11.1539 H      15  UNL15       0.0230
    196 H           2.1856   18.9240   10.8862 H      15  UNL15       0.0230
    197 H           2.0536   19.6118   12.5095 H      15  UNL15       0.0230
    198 H           7.1842   11.1697   28.7757 H      31  UNL31       0.0428
    199 H           5.7635   10.1497   28.4098 H      31  UNL31       0.0428
    200 H           7.3232    9.3754   28.8291 H      31  UNL31       0.0428
@<TRIPOS>BOND
     1    71    59    1
     2   121   109    1
     3   171   159    1
     4    21     9    1
     5    70    59    1
     6   120   109    1
     7   170   159    1
     8    20     9    1
     9   159   172    1
    10   109   122    1
    11     9    22    1
    12    59    72    1
    13    62    53    1
    14    12     3    1
    15   112   103    1
    16   162   153    1
    17    14     4    1
    18   114   104    1
    19   164   154    1
    20    64    54    1
    21   188   154    1
    22   138   104    1
    23    88    54    1
    24    38     4    1
    25   143     7    1
    26   193    57    1
    27     4     3    1
    28   154   153    1
    29   154   105    1
    30   104   103    1
    31    54    53    1
    32    54     5    1
    33   153   111    1
    34   153     1    1
    35    53    11    1
    36    96    84    1
    37   196   184    1
    38   146   134    1
    39    46    34    1
    40   195   184    1
    41   145   134    1
    42    45    34    1
    43    95    84    1
    44    57     1    1
    45    57     8    2
    46   157   101    1
    47   157   108    2
    48   134   105    1
    49   134   147    1
    50   184   155    1
    51   184   197    1
    52    84    55    1
    53    84    97    1
    54    34     5    1
    55    34    47    1
    56   101   106    2
    57     1     6    1
    58   151   156    2
    59    51    56    2
    60     5    16    1
    61     5    15    1
    62   105   116    1
    63   105   115    1
    64    55    66    1
    65    55    65    1
    66   155   166    1
    67   155   165    1
    68   158   169    1
    69   158   152    1
    70   108   119    1
    71   108   102    1
    72     8    19    1
    73     8     2    1
    74    58    69    1
    75    58    52    1
    76   156   152    1
    77   156   167    1
    78    56    52    1
    79    56    67    1
    80   106   102    1
    81   106   117    1
    82     6     2    1
    83     6    17    1
    84   152   160    1
    85     2    10    1
    86   102   110    1
    87    52    60    1
    88    10    24    1
    89    10    23    1
    90    10    25    1
    91   160   174    1
    92   160   173    1
    93   160   175    1
    94    60    74    1
    95    60    73    1
    96    60    75    1
    97   110   124    1
    98   110   123    1
    99   110   125    1
   100    87    78    1
   101   187   178    1
   102   137   128    1
   103    37    28    1
   104   139   129    1
   105   189   179    1
   106    89    79    1
   107    39    29    1
   108    79    78    1
   109    79    30    1
   110    29    28    1
   111   129   128    1
   112   179   178    1
   113   179   130    1
   114   178   136    1
   115   178    26    1
   116    78    36    1
   117    82    26    1
   118    82    33    2
   119   182   126    1
   120   182   133    2
   121    76    81    2
   122   126   131    2
   123    26    31    1
   124   176   181    2
   125   180   191    1
   126   180   190    1
   127    30    41    1
   128    30    40    1
   129   130   141    1
   130   130   140    1
   131    80    91    1
   132    80    90    1
   133    33    44    1
   134    33    27    1
   135    83    94    1
   136    83    77    1
   137   183   194    1
   138   183   177    1
   139   133   144    1
   140   133   127    1
   141   131   127    1
   142   131   142    1
   143    81    77    1
   144    81    92    1
   145   181   177    1
   146   181   192    1
   147    31    27    1
   148    31    42    1
   149    27    35    1
   150   177   185    1
   151    77    85    1
   152   127   135    1
   153   135   149    1
   154   135   148    1
   155   135   150    1
   156    35    49    1
   157    35    48    1
   158    35    50    1
   159   185   199    1
   160   185   198    1
   161   185   200    1
   162    85    99    1
   163    85    98    1
   164    85   100    1
