@<TRIPOS>MOLECULE
Lattice="32.018782 0.0 0.0 -14.043870532898428 28.753623292648026 0.0 -8.625062807759862 -14.478403582935226 26.22054754850901" Properties=species:S:1:pos:R:3 i=167 E=-1376.2763646687 pbc="T T T"
 200 200 0 0 0
SMALL
GASTEIGER

@<TRIPOS>ATOM
      1 H           2.4671    7.2451    9.9337 H       1  UNL1        0.0230
      2 H           0.9376    6.5360    9.3827 H       1  UNL1        0.0230
      3 C           1.5649    6.7144   10.2673 C.3     1  UNL1       -0.0652
      4 H           2.4596    4.7354   10.2714 H       1  UNL1        0.0263
      5 H           1.0064    7.3818   10.9398 H       1  UNL1        0.0230
      6 C           1.9198    5.3928   10.9676 C.3     1  UNL1       -0.0545
      7 H           2.6087    5.5900   11.8014 H       1  UNL1        0.0263
      8 H           1.3650    2.6189   11.4125 H       1  UNL1        0.0464
      9 H          -0.0448    4.4994   10.6652 H       1  UNL1        0.0280
     10 C           0.6658    4.6791   11.4855 C.3     1  UNL1       -0.0374
     11 H           3.2469    1.8227   12.7931 H       1  UNL1        0.0746
     12 H           0.1294    5.3285   12.1909 H       1  UNL1        0.0280
     13 C           2.9201    2.6179   13.4531 C.3     1  UNL1        0.1250
     14 C           0.9068    3.3131   12.1265 C.3     1  UNL1        0.0135
     15 H           5.5319    2.3538   14.4028 H       1  UNL1        0.0428
     16 N           1.8290    3.3856   13.2817 N.pl3   1  UNL1       -0.3135
     17 H           5.0553    2.9554   16.0202 H       1  UNL1        0.0428
     18 N           3.5337    3.0022   14.5897 N.pl3   1  UNL1       -0.3166
     19 C           4.7344    2.3716   15.1531 C.3     1  UNL1        0.0020
     20 H          -0.0333    2.8698   12.4789 H       1  UNL1        0.0464
     21 C           2.8125    4.0396   15.1527 C.2     1  UNL1        0.0072
     22 H           0.9281    4.9894   14.4202 H       1  UNL1        0.0793
     23 C           1.7397    4.2783   14.3354 C.2     1  UNL1        0.0074
     24 H           3.1087    4.4985   16.0861 H       1  UNL1        0.0793
     25 H           4.4905    1.3480   15.4623 H       1  UNL1        0.0428
     26 H          -1.8454    0.0059   23.0440 H       2  UNL2        0.0230
     27 H          -3.3749   -0.7032   22.4930 H       2  UNL2        0.0230
     28 C          -2.7476   -0.5248   23.3776 C.3     2  UNL2       -0.0652
     29 H          -1.8529   -2.5038   23.3817 H       2  UNL2        0.0263
     30 H          -3.3061    0.1426   24.0501 H       2  UNL2        0.0230
     31 C          -2.3927   -1.8464   24.0779 C.3     2  UNL2       -0.0545
     32 H          -1.7038   -1.6492   24.9117 H       2  UNL2        0.0263
     33 H          -2.9475   -4.6203   24.5228 H       2  UNL2        0.0464
     34 H          -4.3573   -2.7398   23.7754 H       2  UNL2        0.0280
     35 C          -3.6468   -2.5601   24.5958 C.3     2  UNL2       -0.0374
     36 H          -1.0657   -5.4165   25.9034 H       2  UNL2        0.0746
     37 H          -4.1831   -1.9107   25.3012 H       2  UNL2        0.0280
     38 C          -1.3924   -4.6213   26.5633 C.3     2  UNL2        0.1250
     39 C          -3.4058   -3.9261   25.2367 C.3     2  UNL2        0.0135
     40 H           1.2194   -4.8854   27.5131 H       2  UNL2        0.0428
     41 N          -2.4835   -3.8536   26.3920 N.pl3   2  UNL2       -0.3135
     42 H           0.7428   -4.2838   29.1304 H       2  UNL2        0.0428
     43 N          -0.7788   -4.2370   27.7000 N.pl3   2  UNL2       -0.3166
     44 C           0.4219   -4.8676   28.2634 C.3     2  UNL2        0.0020
     45 H          -4.3459   -4.3694   25.5892 H       2  UNL2        0.0464
     46 C          -1.5000   -3.1996   28.2630 C.2     2  UNL2        0.0072
     47 H          -3.3845   -2.2498   27.5305 H       2  UNL2        0.0793
     48 C          -2.5729   -2.9609   27.4457 C.2     2  UNL2        0.0074
     49 H          -1.2038   -2.7407   29.1963 H       2  UNL2        0.0793
     50 H           0.1780   -5.8912   28.5726 H       2  UNL2        0.0428
     51 H          -4.5548   21.6219    9.9337 H       3  UNL3        0.0230
     52 H          -6.0843   20.9128    9.3827 H       3  UNL3        0.0230
     53 C          -5.4570   21.0912   10.2673 C.3     3  UNL3       -0.0652
     54 H          -4.5623   19.1122   10.2714 H       3  UNL3        0.0263
     55 H          -6.0155   21.7586   10.9398 H       3  UNL3        0.0230
     56 C          -5.1021   19.7696   10.9676 C.3     3  UNL3       -0.0545
     57 H          -4.4132   19.9669   11.8014 H       3  UNL3        0.0263
     58 H          -5.6569   16.9957   11.4125 H       3  UNL3        0.0464
     59 H          -7.0667   18.8762   10.6652 H       3  UNL3        0.0280
     60 C          -6.3562   19.0559   11.4855 C.3     3  UNL3       -0.0374
     61 H          -3.7751   16.1995   12.7931 H       3  UNL3        0.0746
     62 H          -6.8925   19.7054   12.1909 H       3  UNL3        0.0280
     63 C          -4.1018   16.9947   13.4531 C.3     3  UNL3        0.1250
     64 C          -6.1152   17.6899   12.1265 C.3     3  UNL3        0.0135
     65 H          -1.4900   16.7306   14.4028 H       3  UNL3        0.0428
     66 N          -5.1929   17.7624   13.2817 N.pl3   3  UNL3       -0.3135
     67 H          -1.9666   17.3322   16.0202 H       3  UNL3        0.0428
     68 N          -3.4882   17.3790   14.5897 N.pl3   3  UNL3       -0.3166
     69 C          -2.2875   16.7484   15.1531 C.3     3  UNL3        0.0020
     70 H          -7.0553   17.2466   12.4789 H       3  UNL3        0.0464
     71 C          -4.2094   18.4164   15.1527 C.2     3  UNL3        0.0072
     72 H          -6.0939   19.3662   14.4202 H       3  UNL3        0.0793
     73 C          -5.2823   18.6551   14.3354 C.2     3  UNL3        0.0074
     74 H          -3.9132   18.8753   16.0861 H       3  UNL3        0.0793
     75 H          -2.5314   15.7249   15.4623 H       3  UNL3        0.0428
     76 H          -8.8674   14.3827   23.0440 H       4  UNL4        0.0230
     77 H         -10.3969   13.6736   22.4930 H       4  UNL4        0.0230
     78 C          -9.7696   13.8520   23.3776 C.3     4  UNL4       -0.0652
     79 H          -8.8748   11.8730   23.3817 H       4  UNL4        0.0263
     80 H         -10.3280   14.5194   24.0501 H       4  UNL4        0.0230
     81 C          -9.4146   12.5304   24.0779 C.3     4  UNL4       -0.0545
     82 H          -8.7257   12.7277   24.9117 H       4  UNL4        0.0263
     83 H          -9.9694    9.7565   24.5228 H       4  UNL4        0.0464
     84 H         -11.3793   11.6370   23.7754 H       4  UNL4        0.0280
     85 C         -10.6687   11.8167   24.5958 C.3     4  UNL4       -0.0374
     86 H          -8.0876    8.9603   25.9034 H       4  UNL4        0.0746
     87 H         -11.2051   12.4662   25.3012 H       4  UNL4        0.0280
     88 C          -8.4143    9.7555   26.5633 C.3     4  UNL4        0.1250
     89 C         -10.4277   10.4507   25.2367 C.3     4  UNL4        0.0135
     90 H          -5.8025    9.4914   27.5131 H       4  UNL4        0.0428
     91 N          -9.5054   10.5232   26.3920 N.pl3   4  UNL4       -0.3135
     92 H          -6.2792   10.0930   29.1304 H       4  UNL4        0.0428
     93 N          -7.8007   10.1398   27.7000 N.pl3   4  UNL4       -0.3166
     94 C          -6.6001    9.5092   28.2634 C.3     4  UNL4        0.0020
     95 H         -11.3678   10.0074   25.5892 H       4  UNL4        0.0464
     96 C          -8.5220   11.1772   28.2630 C.2     4  UNL4        0.0072
     97 H         -10.4064   12.1270   27.5305 H       4  UNL4        0.0793
     98 C          -9.5948   11.4159   27.4457 C.2     4  UNL4        0.0074
     99 H          -8.2257   11.6361   29.1963 H       4  UNL4        0.0793
    100 H          -6.8439    8.4856   28.5726 H       4  UNL4        0.0428
    101 H          18.4765    7.2451    9.9337 H       5  UNL5        0.0230
    102 H          16.9470    6.5360    9.3827 H       5  UNL5        0.0230
    103 C          17.5743    6.7144   10.2673 C.3     5  UNL5       -0.0652
    104 H          18.4690    4.7354   10.2714 H       5  UNL5        0.0263
    105 H          17.0158    7.3818   10.9398 H       5  UNL5        0.0230
    106 C          17.9292    5.3928   10.9676 C.3     5  UNL5       -0.0545
    107 H          18.6181    5.5900   11.8014 H       5  UNL5        0.0263
    108 H          17.3744    2.6189   11.4125 H       5  UNL5        0.0464
    109 H          15.9646    4.4994   10.6652 H       5  UNL5        0.0280
    110 C          16.6752    4.6791   11.4855 C.3     5  UNL5       -0.0374
    111 H          19.2563    1.8227   12.7931 H       5  UNL5        0.0746
    112 H          16.1388    5.3285   12.1909 H       5  UNL5        0.0280
    113 C          18.9295    2.6179   13.4531 C.3     5  UNL5        0.1250
    114 C          16.9161    3.3131   12.1265 C.3     5  UNL5        0.0135
    115 H          21.5413    2.3538   14.4028 H       5  UNL5        0.0428
    116 N          17.8384    3.3856   13.2817 N.pl3   5  UNL5       -0.3135
    117 H          21.0647    2.9554   16.0202 H       5  UNL5        0.0428
    118 N          19.5431    3.0022   14.5897 N.pl3   5  UNL5       -0.3166
    119 C          20.7438    2.3716   15.1531 C.3     5  UNL5        0.0020
    120 H          15.9761    2.8698   12.4789 H       5  UNL5        0.0464
    121 C          18.8219    4.0396   15.1527 C.2     5  UNL5        0.0072
    122 H          16.9375    4.9894   14.4202 H       5  UNL5        0.0793
    123 C          17.7491    4.2783   14.3354 C.2     5  UNL5        0.0074
    124 H          19.1181    4.4985   16.0861 H       5  UNL5        0.0793
    125 H          20.4999    1.3480   15.4623 H       5  UNL5        0.0428
    126 H          14.1640    0.0059   23.0440 H       6  UNL6        0.0230
    127 H          12.6345   -0.7032   22.4930 H       6  UNL6        0.0230
    128 C          13.2618   -0.5248   23.3776 C.3     6  UNL6       -0.0652
    129 H          14.1565   -2.5038   23.3817 H       6  UNL6        0.0263
    130 H          12.7033    0.1426   24.0501 H       6  UNL6        0.0230
    131 C          13.6167   -1.8464   24.0779 C.3     6  UNL6       -0.0545
    132 H          14.3056   -1.6492   24.9117 H       6  UNL6        0.0263
    133 H          13.0619   -4.6203   24.5228 H       6  UNL6        0.0464
    134 H          11.6521   -2.7398   23.7754 H       6  UNL6        0.0280
    135 C          12.3626   -2.5601   24.5958 C.3     6  UNL6       -0.0374
    136 H          14.9437   -5.4165   25.9034 H       6  UNL6        0.0746
    137 H          11.8263   -1.9107   25.3012 H       6  UNL6        0.0280
    138 C          14.6170   -4.6213   26.5633 C.3     6  UNL6        0.1250
    139 C          12.6036   -3.9261   25.2367 C.3     6  UNL6        0.0135
    140 H          17.2288   -4.8854   27.5131 H       6  UNL6        0.0428
    141 N          13.5259   -3.8536   26.3920 N.pl3   6  UNL6       -0.3135
    142 H          16.7522   -4.2838   29.1304 H       6  UNL6        0.0428
    143 N          15.2306   -4.2370   27.7000 N.pl3   6  UNL6       -0.3166
    144 C          16.4313   -4.8676   28.2634 C.3     6  UNL6        0.0020
    145 H          11.6635   -4.3694   25.5892 H       6  UNL6        0.0464
    146 C          14.5093   -3.1996   28.2630 C.2     6  UNL6        0.0072
    147 H          12.6249   -2.2498   27.5305 H       6  UNL6        0.0793
    148 C          13.4365   -2.9609   27.4457 C.2     6  UNL6        0.0074
    149 H          14.8056   -2.7407   29.1963 H       6  UNL6        0.0793
    150 H          16.1874   -5.8912   28.5726 H       6  UNL6        0.0428
    151 H          11.4546   21.6219    9.9337 H       7  UNL7        0.0230
    152 H           9.9251   20.9128    9.3827 H       7  UNL7        0.0230
    153 C          10.5524   21.0912   10.2673 C.3     7  UNL7       -0.0652
    154 H          11.4471   19.1122   10.2714 H       7  UNL7        0.0263
    155 H           9.9939   21.7586   10.9398 H       7  UNL7        0.0230
    156 C          10.9073   19.7696   10.9676 C.3     7  UNL7       -0.0545
    157 H          11.5962   19.9669   11.8014 H       7  UNL7        0.0263
    158 H          10.3525   16.9957   11.4125 H       7  UNL7        0.0464
    159 H           8.9427   18.8762   10.6652 H       7  UNL7        0.0280
    160 C           9.6532   19.0559   11.4855 C.3     7  UNL7       -0.0374
    161 H          12.2343   16.1995   12.7931 H       7  UNL7        0.0746
    162 H           9.1169   19.7054   12.1909 H       7  UNL7        0.0280
    163 C          11.9076   16.9947   13.4531 C.3     7  UNL7        0.1250
    164 C           9.8942   17.6899   12.1265 C.3     7  UNL7        0.0135
    165 H          14.5194   16.7306   14.4028 H       7  UNL7        0.0428
    166 N          10.8165   17.7624   13.2817 N.pl3   7  UNL7       -0.3135
    167 H          14.0428   17.3322   16.0202 H       7  UNL7        0.0428
    168 N          12.5212   17.3790   14.5897 N.pl3   7  UNL7       -0.3166
    169 C          13.7219   16.7484   15.1531 C.3     7  UNL7        0.0020
    170 H           8.9541   17.2466   12.4789 H       7  UNL7        0.0464
    171 C          11.7999   18.4164   15.1527 C.2     7  UNL7        0.0072
    172 H           9.9155   19.3662   14.4202 H       7  UNL7        0.0793
    173 C          10.7271   18.6551   14.3354 C.2     7  UNL7        0.0074
    174 H          12.0962   18.8753   16.0861 H       7  UNL7        0.0793
    175 H          13.4780   15.7249   15.4623 H       7  UNL7        0.0428
    176 H           7.1420   14.3827   23.0440 H       8  UNL8        0.0230
    177 H           5.6125   13.6736   22.4930 H       8  UNL8        0.0230
    178 C           6.2398   13.8520   23.3776 C.3     8  UNL8       -0.0652
    179 H           7.1345   11.8730   23.3817 H       8  UNL8        0.0263
    180 H           5.6813   14.5194   24.0501 H       8  UNL8        0.0230
    181 C           6.5948   12.5304   24.0779 C.3     8  UNL8       -0.0545
    182 H           7.2837   12.7277   24.9117 H       8  UNL8        0.0263
    183 H           6.0400    9.7565   24.5228 H       8  UNL8        0.0464
    184 H           4.6301   11.6370   23.7754 H       8  UNL8        0.0280
    185 C           5.3407   11.8167   24.5958 C.3     8  UNL8       -0.0374
    186 H           7.9218    8.9603   25.9034 H       8  UNL8        0.0746
    187 H           4.8043   12.4662   25.3012 H       8  UNL8        0.0280
    188 C           7.5951    9.7555   26.5633 C.3     8  UNL8        0.1250
    189 C           5.5817   10.4507   25.2367 C.3     8  UNL8        0.0135
    190 H          10.2069    9.4914   27.5131 H       8  UNL8        0.0428
    191 N           6.5040   10.5232   26.3920 N.pl3   8  UNL8       -0.3135
    192 H           9.7302   10.0930   29.1304 H       8  UNL8        0.0428
    193 N           8.2087   10.1398   27.7000 N.pl3   8  UNL8       -0.3166
    194 C           9.4093    9.5092   28.2634 C.3     8  UNL8        0.0020
    195 H           4.6416   10.0074   25.5892 H       8  UNL8        0.0464
    196 C           7.4874   11.1772   28.2630 C.2     8  UNL8        0.0072
    197 H           5.6030   12.1270   27.5305 H       8  UNL8        0.0793
    198 C           6.4146   11.4159   27.4457 C.2     8  UNL8        0.0074
    199 H           7.7836   11.6361   29.1963 H       8  UNL8        0.0793
    200 H           9.1655    8.4856   28.5726 H       8  UNL8        0.0428
@<TRIPOS>BOND
     1     2     3    1
     2   152   153    1
     3   102   103    1
     4    52    53    1
     5   101   103    1
     6   151   153    1
     7     1     3    1
     8    51    53    1
     9   103   105    1
    10   103   106    1
    11    53    55    1
    12    53    56    1
    13   153   155    1
    14   153   156    1
    15     3     5    1
    16     3     6    1
    17   104   106    1
    18    54    56    1
    19   154   156    1
    20     4     6    1
    21     9    10    1
    22    59    60    1
    23   109   110    1
    24   159   160    1
    25    56    60    1
    26    56    57    1
    27     6    10    1
    28     6     7    1
    29   106   110    1
    30   106   107    1
    31   156   160    1
    32   156   157    1
    33   108   114    1
    34    58    64    1
    35   158   164    1
    36     8    14    1
    37    10    14    1
    38    10    12    1
    39    60    64    1
    40    60    62    1
    41   110   114    1
    42   110   112    1
    43   160   164    1
    44   160   162    1
    45    64    70    1
    46    64    66    1
    47    14    20    1
    48    14    16    1
    49   164   170    1
    50   164   166    1
    51   114   120    1
    52   114   116    1
    53   111   113    1
    54    61    63    1
    55    11    13    1
    56   161   163    1
    57   116   113    1
    58   116   123    1
    59   166   163    1
    60   166   173    1
    61    16    13    1
    62    16    23    1
    63    66    63    1
    64    66    73    1
    65   113   118    1
    66   163   168    1
    67    13    18    1
    68    63    68    1
    69   173   172    1
    70   173   171    2
    71    73    72    1
    72    73    71    2
    73    23    22    1
    74    23    21    2
    75   123   122    1
    76   123   121    2
    77    65    69    1
    78   115   119    1
    79   165   169    1
    80    15    19    1
    81    68    71    1
    82    68    69    1
    83   168   171    1
    84   168   169    1
    85   118   121    1
    86   118   119    1
    87    18    21    1
    88    18    19    1
    89   121   124    1
    90   171   174    1
    91    71    74    1
    92    21    24    1
    93   119   125    1
    94   119   117    1
    95   169   175    1
    96   169   167    1
    97    19    25    1
    98    19    17    1
    99    69    75    1
   100    69    67    1
   101   127   128    1
   102    27    28    1
   103   177   178    1
   104    77    78    1
   105   176   178    1
   106    76    78    1
   107   126   128    1
   108    26    28    1
   109    28    30    1
   110    28    31    1
   111   178   180    1
   112   178   181    1
   113   128   130    1
   114   128   131    1
   115    78    80    1
   116    78    81    1
   117    29    31    1
   118   129   131    1
   119   179   181    1
   120    79    81    1
   121    84    85    1
   122   134   135    1
   123    34    35    1
   124   184   185    1
   125    81    85    1
   126    81    82    1
   127   181   185    1
   128   181   182    1
   129    31    35    1
   130    31    32    1
   131   131   135    1
   132   131   132    1
   133    83    89    1
   134   183   189    1
   135    33    39    1
   136   133   139    1
   137   185   189    1
   138   185   187    1
   139    35    39    1
   140    35    37    1
   141    85    89    1
   142    85    87    1
   143   135   139    1
   144   135   137    1
   145   139   145    1
   146   139   141    1
   147    39    45    1
   148    39    41    1
   149   189   195    1
   150   189   191    1
   151    89    95    1
   152    89    91    1
   153   186   188    1
   154    86    88    1
   155    36    38    1
   156   136   138    1
   157    91    88    1
   158    91    98    1
   159   191   188    1
   160   191   198    1
   161    41    38    1
   162    41    48    1
   163   141   138    1
   164   141   148    1
   165   188   193    1
   166    38    43    1
   167    88    93    1
   168   138   143    1
   169   148   147    1
   170   148   146    2
   171    48    47    1
   172    48    46    2
   173    98    97    1
   174    98    96    2
   175   198   197    1
   176   198   196    2
   177   190   194    1
   178    90    94    1
   179    40    44    1
   180   140   144    1
   181   143   146    1
   182   143   144    1
   183   193   196    1
   184   193   194    1
   185    93    96    1
   186    93    94    1
   187    43    46    1
   188    43    44    1
   189    46    49    1
   190    96    99    1
   191   196   199    1
   192   146   149    1
   193   194   200    1
   194   194   192    1
   195    94   100    1
   196    94    92    1
   197   144   150    1
   198   144   142    1
   199    44    50    1
   200    44    42    1
