@<TRIPOS>MOLECULE
Lattice="32.018782 0.0 0.0 -14.043870532898428 28.753623292648026 0.0 -8.625062807759862 -14.478403582935226 26.22054754850901" Properties=species:S:1:pos:R:3 i=273 E=-1376.2724417929 pbc="T T T"
 200 200 0 0 0
SMALL
GASTEIGER

@<TRIPOS>ATOM
      1 H           3.9015    2.9416   15.7307 H       1  UNL1        0.0464
      2 H           3.2143    4.5067   16.2075 H       1  UNL1        0.0464
      3 C           3.8634    4.0108   15.4763 C.3     1  UNL1        0.0135
      4 H           5.6822    4.4738   16.4578 H       1  UNL1        0.0280
      5 H           1.3545    5.1417   14.7251 H       1  UNL1        0.0746
      6 N           3.1795    4.1216   14.1705 N.pl3   1  UNL1       -0.3135
      7 C           5.2593    4.6355   15.4533 C.3     1  UNL1       -0.0374
      8 C           1.9809    4.6982   13.9611 C.3     1  UNL1        0.1250
      9 H           5.9085    4.0640   14.7752 H       1  UNL1        0.0280
     10 H           4.6742    6.6976   15.7922 H       1  UNL1        0.0263
     11 C           5.2929    6.1235   15.0869 C.3     1  UNL1       -0.0545
     12 H           7.1916    6.6510   16.0574 H       1  UNL1        0.0230
     13 H           4.8330    6.2646   14.0984 H       1  UNL1        0.0263
     14 C           6.7252    6.6768   15.0614 C.3     1  UNL1       -0.0652
     15 H           7.3660    6.0965   14.3830 H       1  UNL1        0.0230
     16 H           6.7486    7.7224   14.7269 H       1  UNL1        0.0230
     17 C           3.6735    3.6720   12.9581 C.2     1  UNL1        0.0074
     18 N           1.6967    4.6241   12.6452 N.pl3   1  UNL1       -0.3166
     19 H          -0.1712    5.5758   12.7419 H       1  UNL1        0.0428
     20 H          -0.0200    4.3625   11.4363 H       1  UNL1        0.0428
     21 C           2.7446    3.9850   12.0041 C.2     1  UNL1        0.0072
     22 C           0.4983    5.1599   11.9845 C.3     1  UNL1        0.0020
     23 H           2.7385    3.8147   10.9361 H       1  UNL1        0.0793
     24 H           0.7945    5.9491   11.2850 H       1  UNL1        0.0428
     25 H           4.6302    3.1723   12.8770 H       1  UNL1        0.0793
     26 H          -0.4110   -4.2976   28.8410 H       2  UNL2        0.0464
     27 H          -1.0982   -2.7325   29.3178 H       2  UNL2        0.0464
     28 C          -0.4491   -3.2284   28.5866 C.3     2  UNL2        0.0135
     29 H           1.3697   -2.7654   29.5681 H       2  UNL2        0.0280
     30 H          -2.9580   -2.0975   27.8354 H       2  UNL2        0.0746
     31 N          -1.1330   -3.1176   27.2808 N.pl3   2  UNL2       -0.3135
     32 C           0.9468   -2.6037   28.5636 C.3     2  UNL2       -0.0374
     33 C          -2.3316   -2.5410   27.0714 C.3     2  UNL2        0.1250
     34 H           1.5960   -3.1752   27.8855 H       2  UNL2        0.0280
     35 H           0.3617   -0.5416   28.9025 H       2  UNL2        0.0263
     36 C           0.9804   -1.1157   28.1972 C.3     2  UNL2       -0.0545
     37 H           2.8791   -0.5882   29.1677 H       2  UNL2        0.0230
     38 H           0.5205   -0.9746   27.2087 H       2  UNL2        0.0263
     39 C           2.4127   -0.5624   28.1717 C.3     2  UNL2       -0.0652
     40 H           3.0535   -1.1427   27.4933 H       2  UNL2        0.0230
     41 H           2.4361    0.4832   27.8372 H       2  UNL2        0.0230
     42 C          -0.6390   -3.5672   26.0684 C.2     2  UNL2        0.0074
     43 N          -2.6158   -2.6151   25.7555 N.pl3   2  UNL2       -0.3166
     44 H          -4.4837   -1.6634   25.8522 H       2  UNL2        0.0428
     45 H          -4.3325   -2.8767   24.5466 H       2  UNL2        0.0428
     46 C          -1.5679   -3.2542   25.1144 C.2     2  UNL2        0.0072
     47 C          -3.8142   -2.0793   25.0948 C.3     2  UNL2        0.0020
     48 H          -1.5740   -3.4245   24.0464 H       2  UNL2        0.0793
     49 H          -3.5180   -1.2901   24.3953 H       2  UNL2        0.0428
     50 H           0.3177   -4.0669   25.9873 H       2  UNL2        0.0793
     51 H          -3.1204   17.3184   15.7307 H       3  UNL3        0.0464
     52 H          -3.8076   18.8835   16.2075 H       3  UNL3        0.0464
     53 C          -3.1585   18.3876   15.4763 C.3     3  UNL3        0.0135
     54 H          -1.3397   18.8506   16.4578 H       3  UNL3        0.0280
     55 H          -5.6674   19.5185   14.7251 H       3  UNL3        0.0746
     56 N          -3.8424   18.4984   14.1705 N.pl3   3  UNL3       -0.3135
     57 C          -1.7626   19.0123   15.4533 C.3     3  UNL3       -0.0374
     58 C          -5.0410   19.0750   13.9611 C.3     3  UNL3        0.1250
     59 H          -1.1134   18.4408   14.7752 H       3  UNL3        0.0280
     60 H          -2.3477   21.0744   15.7922 H       3  UNL3        0.0263
     61 C          -1.7290   20.5003   15.0869 C.3     3  UNL3       -0.0545
     62 H           0.1697   21.0278   16.0574 H       3  UNL3        0.0230
     63 H          -2.1889   20.6414   14.0984 H       3  UNL3        0.0263
     64 C          -0.2967   21.0536   15.0614 C.3     3  UNL3       -0.0652
     65 H           0.3441   20.4733   14.3830 H       3  UNL3        0.0230
     66 H          -0.2733   22.0992   14.7269 H       3  UNL3        0.0230
     67 C          -3.3484   18.0488   12.9581 C.2     3  UNL3        0.0074
     68 N          -5.3252   19.0009   12.6452 N.pl3   3  UNL3       -0.3166
     69 H          -7.1931   19.9526   12.7419 H       3  UNL3        0.0428
     70 H          -7.0419   18.7393   11.4363 H       3  UNL3        0.0428
     71 C          -4.2773   18.3618   12.0041 C.2     3  UNL3        0.0072
     72 C          -6.5236   19.5367   11.9845 C.3     3  UNL3        0.0020
     73 H          -4.2834   18.1915   10.9361 H       3  UNL3        0.0793
     74 H          -6.2274   20.3259   11.2850 H       3  UNL3        0.0428
     75 H          -2.3917   17.5491   12.8770 H       3  UNL3        0.0793
     76 H          -7.4330   10.0792   28.8410 H       4  UNL4        0.0464
     77 H          -8.1202   11.6443   29.3178 H       4  UNL4        0.0464
     78 C          -7.4711   11.1484   28.5866 C.3     4  UNL4        0.0135
     79 H          -5.6523   11.6114   29.5681 H       4  UNL4        0.0280
     80 H          -9.9800   12.2793   27.8354 H       4  UNL4        0.0746
     81 N          -8.1550   11.2592   27.2808 N.pl3   4  UNL4       -0.3135
     82 C          -6.0752   11.7731   28.5636 C.3     4  UNL4       -0.0374
     83 C          -9.3536   11.8358   27.0714 C.3     4  UNL4        0.1250
     84 H          -5.4260   11.2016   27.8855 H       4  UNL4        0.0280
     85 H          -6.6603   13.8352   28.9025 H       4  UNL4        0.0263
     86 C          -6.0416   13.2611   28.1972 C.3     4  UNL4       -0.0545
     87 H          -4.1429   13.7886   29.1677 H       4  UNL4        0.0230
     88 H          -6.5015   13.4022   27.2087 H       4  UNL4        0.0263
     89 C          -4.6093   13.8144   28.1717 C.3     4  UNL4       -0.0652
     90 H          -3.9685   13.2341   27.4933 H       4  UNL4        0.0230
     91 H          -4.5859   14.8600   27.8372 H       4  UNL4        0.0230
     92 C          -7.6610   10.8096   26.0684 C.2     4  UNL4        0.0074
     93 N          -9.6378   11.7617   25.7555 N.pl3   4  UNL4       -0.3166
     94 H         -11.5057   12.7134   25.8522 H       4  UNL4        0.0428
     95 H         -11.3545   11.5001   24.5466 H       4  UNL4        0.0428
     96 C          -8.5899   11.1226   25.1144 C.2     4  UNL4        0.0072
     97 C         -10.8362   12.2975   25.0948 C.3     4  UNL4        0.0020
     98 H          -8.5960   10.9523   24.0464 H       4  UNL4        0.0793
     99 H         -10.5400   13.0867   24.3953 H       4  UNL4        0.0428
    100 H          -6.7043   10.3099   25.9873 H       4  UNL4        0.0793
    101 H          19.9109    2.9416   15.7307 H       5  UNL5        0.0464
    102 H          19.2237    4.5067   16.2075 H       5  UNL5        0.0464
    103 C          19.8728    4.0108   15.4763 C.3     5  UNL5        0.0135
    104 H          21.6916    4.4738   16.4578 H       5  UNL5        0.0280
    105 H          17.3639    5.1417   14.7251 H       5  UNL5        0.0746
    106 N          19.1889    4.1216   14.1705 N.pl3   5  UNL5       -0.3135
    107 C          21.2687    4.6355   15.4533 C.3     5  UNL5       -0.0374
    108 C          17.9903    4.6982   13.9611 C.3     5  UNL5        0.1250
    109 H          21.9179    4.0640   14.7752 H       5  UNL5        0.0280
    110 H          20.6836    6.6976   15.7922 H       5  UNL5        0.0263
    111 C          21.3023    6.1235   15.0869 C.3     5  UNL5       -0.0545
    112 H          23.2010    6.6510   16.0574 H       5  UNL5        0.0230
    113 H          20.8424    6.2646   14.0984 H       5  UNL5        0.0263
    114 C          22.7346    6.6768   15.0614 C.3     5  UNL5       -0.0652
    115 H          23.3754    6.0965   14.3830 H       5  UNL5        0.0230
    116 H          22.7580    7.7224   14.7269 H       5  UNL5        0.0230
    117 C          19.6829    3.6720   12.9581 C.2     5  UNL5        0.0074
    118 N          17.7061    4.6241   12.6452 N.pl3   5  UNL5       -0.3166
    119 H          15.8382    5.5758   12.7419 H       5  UNL5        0.0428
    120 H          15.9894    4.3625   11.4363 H       5  UNL5        0.0428
    121 C          18.7540    3.9850   12.0041 C.2     5  UNL5        0.0072
    122 C          16.5077    5.1599   11.9845 C.3     5  UNL5        0.0020
    123 H          18.7479    3.8147   10.9361 H       5  UNL5        0.0793
    124 H          16.8039    5.9491   11.2850 H       5  UNL5        0.0428
    125 H          20.6396    3.1723   12.8770 H       5  UNL5        0.0793
    126 H          15.5984   -4.2976   28.8410 H       6  UNL6        0.0464
    127 H          14.9112   -2.7325   29.3178 H       6  UNL6        0.0464
    128 C          15.5603   -3.2284   28.5866 C.3     6  UNL6        0.0135
    129 H          17.3791   -2.7654   29.5681 H       6  UNL6        0.0280
    130 H          13.0514   -2.0975   27.8354 H       6  UNL6        0.0746
    131 N          14.8764   -3.1176   27.2808 N.pl3   6  UNL6       -0.3135
    132 C          16.9562   -2.6037   28.5636 C.3     6  UNL6       -0.0374
    133 C          13.6778   -2.5410   27.0714 C.3     6  UNL6        0.1250
    134 H          17.6054   -3.1752   27.8855 H       6  UNL6        0.0280
    135 H          16.3711   -0.5416   28.9025 H       6  UNL6        0.0263
    136 C          16.9898   -1.1157   28.1972 C.3     6  UNL6       -0.0545
    137 H          18.8885   -0.5882   29.1677 H       6  UNL6        0.0230
    138 H          16.5299   -0.9746   27.2087 H       6  UNL6        0.0263
    139 C          18.4221   -0.5624   28.1717 C.3     6  UNL6       -0.0652
    140 H          19.0629   -1.1427   27.4933 H       6  UNL6        0.0230
    141 H          18.4455    0.4832   27.8372 H       6  UNL6        0.0230
    142 C          15.3704   -3.5672   26.0684 C.2     6  UNL6        0.0074
    143 N          13.3936   -2.6151   25.7555 N.pl3   6  UNL6       -0.3166
    144 H          11.5257   -1.6634   25.8522 H       6  UNL6        0.0428
    145 H          11.6769   -2.8767   24.5466 H       6  UNL6        0.0428
    146 C          14.4415   -3.2542   25.1144 C.2     6  UNL6        0.0072
    147 C          12.1952   -2.0793   25.0948 C.3     6  UNL6        0.0020
    148 H          14.4354   -3.4245   24.0464 H       6  UNL6        0.0793
    149 H          12.4914   -1.2901   24.3953 H       6  UNL6        0.0428
    150 H          16.3271   -4.0669   25.9873 H       6  UNL6        0.0793
    151 H          12.8890   17.3184   15.7307 H       7  UNL7        0.0464
    152 H          12.2018   18.8835   16.2075 H       7  UNL7        0.0464
    153 C          12.8509   18.3876   15.4763 C.3     7  UNL7        0.0135
    154 H          14.6697   18.8506   16.4578 H       7  UNL7        0.0280
    155 H          10.3420   19.5185   14.7251 H       7  UNL7        0.0746
    156 N          12.1670   18.4984   14.1705 N.pl3   7  UNL7       -0.3135
    157 C          14.2468   19.0123   15.4533 C.3     7  UNL7       -0.0374
    158 C          10.9684   19.0750   13.9611 C.3     7  UNL7        0.1250
    159 H          14.8960   18.4408   14.7752 H       7  UNL7        0.0280
    160 H          13.6617   21.0744   15.7922 H       7  UNL7        0.0263
    161 C          14.2804   20.5003   15.0869 C.3     7  UNL7       -0.0545
    162 H          16.1791   21.0278   16.0574 H       7  UNL7        0.0230
    163 H          13.8205   20.6414   14.0984 H       7  UNL7        0.0263
    164 C          15.7127   21.0536   15.0614 C.3     7  UNL7       -0.0652
    165 H          16.3535   20.4733   14.3830 H       7  UNL7        0.0230
    166 H          15.7361   22.0992   14.7269 H       7  UNL7        0.0230
    167 C          12.6610   18.0488   12.9581 C.2     7  UNL7        0.0074
    168 N          10.6842   19.0009   12.6452 N.pl3   7  UNL7       -0.3166
    169 H           8.8163   19.9526   12.7419 H       7  UNL7        0.0428
    170 H           8.9675   18.7393   11.4363 H       7  UNL7        0.0428
    171 C          11.7321   18.3618   12.0041 C.2     7  UNL7        0.0072
    172 C           9.4858   19.5367   11.9845 C.3     7  UNL7        0.0020
    173 H          11.7260   18.1915   10.9361 H       7  UNL7        0.0793
    174 H           9.7820   20.3259   11.2850 H       7  UNL7        0.0428
    175 H          13.6177   17.5491   12.8770 H       7  UNL7        0.0793
    176 H           8.5764   10.0792   28.8410 H       8  UNL8        0.0464
    177 H           7.8892   11.6443   29.3178 H       8  UNL8        0.0464
    178 C           8.5383   11.1484   28.5866 C.3     8  UNL8        0.0135
    179 H          10.3571   11.6114   29.5681 H       8  UNL8        0.0280
    180 H           6.0294   12.2793   27.8354 H       8  UNL8        0.0746
    181 N           7.8544   11.2592   27.2808 N.pl3   8  UNL8       -0.3135
    182 C           9.9342   11.7731   28.5636 C.3     8  UNL8       -0.0374
    183 C           6.6558   11.8358   27.0714 C.3     8  UNL8        0.1250
    184 H          10.5834   11.2016   27.8855 H       8  UNL8        0.0280
    185 H           9.3491   13.8352   28.9025 H       8  UNL8        0.0263
    186 C           9.9678   13.2611   28.1972 C.3     8  UNL8       -0.0545
    187 H          11.8665   13.7886   29.1677 H       8  UNL8        0.0230
    188 H           9.5079   13.4022   27.2087 H       8  UNL8        0.0263
    189 C          11.4001   13.8144   28.1717 C.3     8  UNL8       -0.0652
    190 H          12.0409   13.2341   27.4933 H       8  UNL8        0.0230
    191 H          11.4235   14.8600   27.8372 H       8  UNL8        0.0230
    192 C           8.3484   10.8096   26.0684 C.2     8  UNL8        0.0074
    193 N           6.3716   11.7617   25.7555 N.pl3   8  UNL8       -0.3166
    194 H           4.5037   12.7134   25.8522 H       8  UNL8        0.0428
    195 H           4.6549   11.5001   24.5466 H       8  UNL8        0.0428
    196 C           7.4195   11.1226   25.1144 C.2     8  UNL8        0.0072
    197 C           5.1732   12.2975   25.0948 C.3     8  UNL8        0.0020
    198 H           7.4134   10.9523   24.0464 H       8  UNL8        0.0793
    199 H           5.4694   13.0867   24.3953 H       8  UNL8        0.0428
    200 H           9.3051   10.3099   25.9873 H       8  UNL8        0.0793
@<TRIPOS>BOND
     1   123   121    1
     2   173   171    1
     3    23    21    1
     4    73    71    1
     5   174   172    1
     6   124   122    1
     7    24    22    1
     8    74    72    1
     9    20    22    1
    10   170   172    1
    11    70    72    1
    12   120   122    1
    13    72    68    1
    14    72    69    1
    15   172   168    1
    16   172   169    1
    17   122   118    1
    18   122   119    1
    19    22    18    1
    20    22    19    1
    21    21    18    1
    22    21    17    2
    23   121   118    1
    24   121   117    2
    25   171   168    1
    26   171   167    2
    27    71    68    1
    28    71    67    2
    29    18     8    1
    30    68    58    1
    31   168   158    1
    32   118   108    1
    33    75    67    1
    34   125   117    1
    35    25    17    1
    36   175   167    1
    37   117   106    1
    38   167   156    1
    39    67    56    1
    40    17     6    1
    41     8     6    1
    42     8     5    1
    43   108   106    1
    44   108   105    1
    45    58    56    1
    46    58    55    1
    47   158   156    1
    48   158   155    1
    49   113   111    1
    50    13    11    1
    51    63    61    1
    52   163   161    1
    53   156   153    1
    54    56    53    1
    55   106   103    1
    56     6     3    1
    57    65    64    1
    58   115   114    1
    59    15    14    1
    60   165   164    1
    61   116   114    1
    62    16    14    1
    63   166   164    1
    64    66    64    1
    65   109   107    1
    66     9     7    1
    67    59    57    1
    68   159   157    1
    69   164   161    1
    70   164   162    1
    71    14    11    1
    72    14    12    1
    73    64    61    1
    74    64    62    1
    75   114   111    1
    76   114   112    1
    77   111   107    1
    78   111   110    1
    79   161   157    1
    80   161   160    1
    81    61    57    1
    82    61    60    1
    83    11     7    1
    84    11    10    1
    85   107   103    1
    86   107   104    1
    87   157   153    1
    88   157   154    1
    89    57    53    1
    90    57    54    1
    91     7     3    1
    92     7     4    1
    93   103   101    1
    94   103   102    1
    95   153   151    1
    96   153   152    1
    97     3     1    1
    98     3     2    1
    99    53    51    1
   100    53    52    1
   101    98    96    1
   102   198   196    1
   103   148   146    1
   104    48    46    1
   105   199   197    1
   106    49    47    1
   107   149   147    1
   108    99    97    1
   109    45    47    1
   110   195   197    1
   111   145   147    1
   112    95    97    1
   113    47    43    1
   114    47    44    1
   115   197   193    1
   116   197   194    1
   117   147   143    1
   118   147   144    1
   119    97    93    1
   120    97    94    1
   121    96    93    1
   122    96    92    2
   123   196   193    1
   124   196   192    2
   125   146   143    1
   126   146   142    2
   127    46    43    1
   128    46    42    2
   129   143   133    1
   130    43    33    1
   131    93    83    1
   132   193   183    1
   133   200   192    1
   134   150   142    1
   135    50    42    1
   136   100    92    1
   137    42    31    1
   138   142   131    1
   139    92    81    1
   140   192   181    1
   141   183   181    1
   142   183   180    1
   143    83    81    1
   144    83    80    1
   145   133   131    1
   146   133   130    1
   147    33    31    1
   148    33    30    1
   149   138   136    1
   150   188   186    1
   151    88    86    1
   152    38    36    1
   153   181   178    1
   154    81    78    1
   155    31    28    1
   156   131   128    1
   157    40    39    1
   158   190   189    1
   159    90    89    1
   160   140   139    1
   161   191   189    1
   162    41    39    1
   163    91    89    1
   164   141   139    1
   165   134   132    1
   166   184   182    1
   167    34    32    1
   168    84    82    1
   169    89    86    1
   170    89    87    1
   171   189   186    1
   172   189   187    1
   173   139   136    1
   174   139   137    1
   175    39    36    1
   176    39    37    1
   177    86    82    1
   178    86    85    1
   179   186   182    1
   180   186   185    1
   181   136   132    1
   182   136   135    1
   183    36    32    1
   184    36    35    1
   185   132   128    1
   186   132   129    1
   187    32    28    1
   188    32    29    1
   189    82    78    1
   190    82    79    1
   191   182   178    1
   192   182   179    1
   193    78    76    1
   194    78    77    1
   195    28    26    1
   196    28    27    1
   197   178   176    1
   198   178   177    1
   199   128   126    1
   200   128   127    1
