@<TRIPOS>MOLECULE
frame0031
 1536 1728 0 0 0
SMALL
NO_CHARGES

@<TRIPOS>ATOM
      1 Ti1         -7.2525    -4.7028    10.9213 Ti        1 MOL       0.0000
      2 Ti2          1.4823     3.6949     8.3945 Ti        1 MOL       0.0000
      3 Ti3         -1.5765    -6.1937     9.1827 Ti        1 MOL       0.0000
      4 Ti4         -3.9633     3.8996     8.7320 Ti        1 MOL       0.0000
      5 Ti5         -4.9273     6.0595     7.1687 Ti        1 MOL       0.0000
      6 Ti6         -0.8976    -7.2192    11.9469 Ti        1 MOL       0.0000
      7 Ti7         -4.9160    -4.8722     8.6402 Ti        1 MOL       0.0000
      8 Ti8         -0.6625     2.7035     9.4008 Ti        1 MOL       0.0000
      9 H1          -9.1670    -1.6266    12.8928 H         1 MOL       0.0000
     10 H2           4.2212     0.7056     7.1721 H         1 MOL       0.0000
     11 H3          -9.2487    -5.5077     8.1913 H         1 MOL       0.0000
     12 H4           2.4238     5.4612    11.2767 H         1 MOL       0.0000
     13 H5           2.2818    -9.9058    10.0378 H         1 MOL       0.0000
     14 H6          -7.3416     4.9892     5.1763 H         1 MOL       0.0000
     15 H7          -2.9533     5.9026     4.7289 H         1 MOL       0.0000
     16 H8           1.0163     4.2157     5.6422 H         1 MOL       0.0000
     17 H9           1.8223    -4.6982     6.3643 H         1 MOL       0.0000
     18 H10         -7.4892     3.1291    12.4033 H         1 MOL       0.0000
     19 H11         -9.4645    -2.6176     7.9450 H         1 MOL       0.0000
     20 H12          3.6896     1.2153    11.0309 H         1 MOL       0.0000
     21 H13         -5.8966    -1.6449     5.0400 H         1 MOL       0.0000
     22 H14         -8.8894     5.8066     8.8861 H         1 MOL       0.0000
     23 H15         -6.8284     7.9545     9.7636 H         1 MOL       0.0000
     24 H16          4.8866    -1.4613     7.2891 H         1 MOL       0.0000
     25 H17         -1.9234     4.6167     8.2774 H         1 MOL       0.0000
     26 H18         -3.8500    -5.6342    10.8572 H         1 MOL       0.0000
     27 H19          1.2957    -4.4356    13.4101 H         1 MOL       0.0000
     28 H20          0.3384    -5.3535    13.1856 H         1 MOL       0.0000
     29 H21         -0.5738    -0.4794    14.8064 H         1 MOL       0.0000
     30 H22         -0.5749     0.5927    13.0849 H         1 MOL       0.0000
     31 H23          3.9966    -8.0780    10.5095 H         1 MOL       0.0000
     32 H24          2.3409    -7.6486    10.8776 H         1 MOL       0.0000
     33 C1           1.2673     1.6702    11.1730 C         1 MOL       0.0000
     34 C2          -7.0074    -3.0874     7.7299 C         1 MOL       0.0000
     35 C3           1.0439    -6.1583     9.0403 C         1 MOL       0.0000
     36 C4          -6.7473     4.6330     9.7077 C         1 MOL       0.0000
     37 C5           1.8529     0.7868    12.3120 C         1 MOL       0.0000
     38 C6          -7.6353    -2.2024     6.6014 C         1 MOL       0.0000
     39 C7           2.3656    -6.0009     8.2564 C         1 MOL       0.0000
     40 C8          -8.0744     4.4772    10.5854 C         1 MOL       0.0000
     41 C9           1.1382     0.0591    13.6302 C         1 MOL       0.0000
     42 C10         -6.9214    -1.5218     5.2631 C         1 MOL       0.0000
     43 C11          3.3922    -6.6828     8.8925 C         1 MOL       0.0000
     44 C12         -9.0888     5.1681     9.9810 C         1 MOL       0.0000
     45 C13         -8.2957     3.6510    11.9802 C         1 MOL       0.0000
     46 C14          2.6248    -5.1871     6.8167 C         1 MOL       0.0000
     47 C15          3.1811     0.6498    12.0532 C         1 MOL       0.0000
     48 C16         -8.9459    -2.0789     6.8967 C         1 MOL       0.0000
     49 C17          4.9358     1.9140     5.0606 C         1 MOL       0.0000
     50 C18         -6.3205     9.9501     7.7373 C         1 MOL       0.0000
     51 C19          3.1702     6.5532     9.0416 C         1 MOL       0.0000
     52 C20         -6.4618     6.2044     3.1407 C         1 MOL       0.0000
     53 C21         -2.7894     1.1840     9.8989 C         1 MOL       0.0000
     54 C22         -2.3608    -5.6654     5.9140 C         1 MOL       0.0000
     55 C23          3.9889     2.9944     5.6944 C         1 MOL       0.0000
     56 C24         -5.5136     8.8924     6.9398 C         1 MOL       0.0000
     57 C25          2.6735     5.9222     8.1352 C         1 MOL       0.0000
     58 C26         -5.8020     6.6580     4.0695 C         1 MOL       0.0000
     59 C27          4.9161     0.7597     5.9751 C         1 MOL       0.0000
     60 C28         -9.8403    -1.6782    14.1040 C         1 MOL       0.0000
     61 C29          2.9888     6.1690    10.7371 C         1 MOL       0.0000
     62 C30         -9.8389    -6.1963     8.7367 C         1 MOL       0.0000
     63 C31          0.3647    -5.3242    15.5416 C         1 MOL       0.0000
     64 C32         -7.2174     5.3029     3.8898 C         1 MOL       0.0000
     65 C33          2.2804   -10.8034    10.7439 C         1 MOL       0.0000
     66 C34         -7.2027     9.8507     9.3460 C         1 MOL       0.0000
     67 N1          -7.2571     8.7460    10.3118 N         1 MOL       0.0000
     68 N2           0.5430    -4.8602    13.9249 N         1 MOL       0.0000
     69 N3          -0.1442     0.1329    13.9446 N         1 MOL       0.0000
     70 N4           3.2269    -7.4709    10.2942 N         1 MOL       0.0000
     71 O1           0.1261     1.6426    11.1545 O         1 MOL       0.0000
     72 O2          -5.7952    -3.4947     7.2413 O         1 MOL       0.0000
     73 O3           0.7779    -6.6785    10.5118 O         1 MOL       0.0000
     74 O4          -6.6132     5.5899     8.6908 O         1 MOL       0.0000
     75 O5          -5.8137     3.7997    10.0005 O         1 MOL       0.0000
     76 O6           0.2068    -5.7983     8.2362 O         1 MOL       0.0000
     77 O7           1.9256     2.4277    10.2080 O         1 MOL       0.0000
     78 O8          -7.7278    -3.4117     9.1244 O         1 MOL       0.0000
     79 O9           0.6935     2.4729     7.7530 O         1 MOL       0.0000
     80 O10         -5.7536    -4.0480    10.4359 O         1 MOL       0.0000
     81 O11         -0.2186     4.0402     9.8088 O         1 MOL       0.0000
     82 O12         -6.0479    -5.7945     9.1968 O         1 MOL       0.0000
     83 O13         -1.1642    -7.7141     9.9869 O         1 MOL       0.0000
     84 O14         -4.2895     5.5171     9.0291 O         1 MOL       0.0000
     85 O15         -1.7209    -5.6732    11.1245 O         1 MOL       0.0000
     86 O16         -4.1699     4.2942     6.7879 O         1 MOL       0.0000
     87 O17         -1.7572     1.3782    10.0634 O         1 MOL       0.0000
     88 O18         -3.5431    -5.1722     6.4798 O         1 MOL       0.0000
     89 O19          0.4225    -8.7818    12.0423 O         1 MOL       0.0000
     90 O20         -5.5454     7.7725     7.6430 O         1 MOL       0.0000
     91 O21         -0.7128    -6.6125    13.8250 O         1 MOL       0.0000
     92 O22         -5.8898     6.1856     5.5557 O         1 MOL       0.0000
     93 O23         -1.5922    -5.9995     6.8029 O         1 MOL       0.0000
     94 O24         -3.6441     2.0509     9.4955 O         1 MOL       0.0000
     95 O25          2.0858     5.0213     8.8638 O         1 MOL       0.0000
     96 O26         -8.6897    -5.3195    10.6198 O         1 MOL       0.0000
     97 O27          3.1965     2.8649     7.1254 O         1 MOL       0.0000
     98 O28         -8.3001    -3.7801    12.7177 O         1 MOL       0.0000
     99 O29         -2.0923     3.7803     8.5443 O         1 MOL       0.0000
    100 O30         -3.5101    -5.7150     9.6880 O         1 MOL       0.0000
    101 O31          1.2983     4.7203     6.2267 O         1 MOL       0.0000
    102 O32         -3.4710     6.6041     5.3312 O         1 MOL       0.0000
    103 H25         -1.5186    -3.0492    11.1930 H         1 MOL       0.0000
    104 H26          0.0957    -6.2424     4.0902 H         1 MOL       0.0000
    105 H27         -5.2117     4.8970    13.0160 H         1 MOL       0.0000
    106 H28         -1.1474    -0.8736    10.5912 H         1 MOL       0.0000
    107 H29         -5.3294    -1.7380    10.7505 H         1 MOL       0.0000
    108 H30         -3.7891    -5.8131     4.0097 H         1 MOL       0.0000
    109 H31         -3.5771    -3.4652    11.1841 H         1 MOL       0.0000
    110 H32         -4.9601     0.4391    10.1645 H         1 MOL       0.0000
    111 H33         -2.8831     4.3339    11.6732 H         1 MOL       0.0000
    112 H34        -12.0630     3.1977     5.2676 H         1 MOL       0.0000
    113 C35         -3.0237    -0.0951    10.3072 C         1 MOL       0.0000
    114 C36         -3.4353    -2.5163    10.9779 C         1 MOL       0.0000
    115 C37         -3.2206     4.6662    12.8815 C         1 MOL       0.0000
    116 C38         -1.8904    -5.9990     4.2122 C         1 MOL       0.0000
    117 C39         -4.2121    -0.3337    10.3791 C         1 MOL       0.0000
    118 C40         -2.2643    -2.2817    10.9638 C         1 MOL       0.0000
    119 C41         -4.5331     4.9934    13.6284 C         1 MOL       0.0000
    120 C42         -0.5725    -6.3241     3.4553 C         1 MOL       0.0000
    121 C43         -2.3362     4.7813    13.6550 C         1 MOL       0.0000
    122 C44         -2.7741    -6.0791     3.4070 C         1 MOL       0.0000
    123 C45         -2.0592    -1.0721    10.6362 C         1 MOL       0.0000
    124 C46         -4.4157    -1.5434    10.7071 C         1 MOL       0.0000
    125 N5         -19.8055     5.1460    20.4905 N         1 MOL       0.0000
    126 N6         -17.8171     5.1981    19.1561 N         1 MOL       0.0000
    127 C47        -19.7920     6.1736    19.3572 C         1 MOL       0.0000
    128 C48        -18.5571     6.2076    18.5014 C         1 MOL       0.0000
    129 C49        -16.0353     6.0816    19.3212 C         1 MOL       0.0000
    130 C50        -20.9053     4.9268    21.8888 C         1 MOL       0.0000
    131 C51        -18.5876     4.5716    20.3706 C         1 MOL       0.0000
    132 C52        -16.4210     5.0148    18.8189 C         1 MOL       0.0000
    133 H35        -20.6384     6.8643    19.3514 H         1 MOL       0.0000
    134 H36        -18.1513     6.8692    17.5338 H         1 MOL       0.0000
    135 H37        -16.3385     6.9566    18.6328 H         1 MOL       0.0000
    136 H38        -21.5015     5.8267    22.1955 H         1 MOL       0.0000
    137 H39        -16.4589     6.2006    20.6319 H         1 MOL       0.0000
    138 H40        -21.4031     4.3206    21.5803 H         1 MOL       0.0000
    139 H41        -14.9898     5.9167    19.0316 H         1 MOL       0.0000
    140 H42        -15.9913     4.9068    17.5127 H         1 MOL       0.0000
    141 H43        -20.5474     4.5063    22.9236 H         1 MOL       0.0000
    142 H44        -18.2500     3.7974    21.1398 H         1 MOL       0.0000
    143 H45        -16.1320     4.1359    19.4992 H         1 MOL       0.0000
    144 N7         -20.4046     8.9717    21.5719 N         1 MOL       0.0000
    145 C53        -18.7239     8.7868    24.9091 C         1 MOL       0.0000
    146 C54        -19.9095    12.5824    19.8333 C         1 MOL       0.0000
    147 O33        -21.1896     7.5442    25.0860 O         1 MOL       0.0000
    148 O34        -17.7750     6.6109    23.4039 O         1 MOL       0.0000
    149 O35        -19.6174     9.4864    18.2071 O         1 MOL       0.0000
    150 O36        -17.9208    10.7106    17.7819 O         1 MOL       0.0000
    151 F1         -19.8036     8.7444    26.2447 F         1 MOL       0.0000
    152 F2         -22.0631    12.9593    22.9244 F         1 MOL       0.0000
    153 F3         -18.1671     9.6302    25.2683 F         1 MOL       0.0000
    154 F4         -20.6784     6.6166    27.3988 F         1 MOL       0.0000
    155 F5         -20.9573    13.4643    20.1783 F         1 MOL       0.0000
    156 F6         -19.4659    12.7046    18.1383 F         1 MOL       0.0000
    157 S1         -19.8759     8.0794    22.7373 S         1 MOL       0.0000
    158 S2         -18.8689    10.0441    18.8655 S         1 MOL       0.0000
    159 N8           0.0637    -0.3584     6.1696 N         1 MOL       0.0000
    160 N9          -1.9157    -0.4795     6.5468 N         1 MOL       0.0000
    161 C55          1.2130     0.1754     5.8263 C         1 MOL       0.0000
    162 C56         -1.0970     0.2996     6.1347 C         1 MOL       0.0000
    163 C57         -0.0093    -1.5923     6.6255 C         1 MOL       0.0000
    164 C58          2.3916    -0.4883     4.6125 C         1 MOL       0.0000
    165 C59         -1.2516    -1.6583     6.8591 C         1 MOL       0.0000
    166 C60         -3.2145    -0.1697     6.3815 C         1 MOL       0.0000
    167 H46          1.3904     0.1834     7.0024 H         1 MOL       0.0000
    168 H47          0.9471     1.1482     5.3849 H         1 MOL       0.0000
    169 H48         -1.3160     1.2667     5.7264 H         1 MOL       0.0000
    170 H49          3.2167    -0.1411     4.6473 H         1 MOL       0.0000
    171 H50          0.8084    -2.2983     6.7184 H         1 MOL       0.0000
    172 H51         -3.8597    -0.5075     7.5080 H         1 MOL       0.0000
    173 H52         -3.4876     0.8378     6.1657 H         1 MOL       0.0000
    174 H53          2.5647    -1.4914     4.9362 H         1 MOL       0.0000
    175 H54         -1.6917    -2.4573     7.1538 H         1 MOL       0.0000
    176 H55          2.3062    -0.3325     3.3669 H         1 MOL       0.0000
    177 H56         -3.2159    -0.6088     5.3406 H         1 MOL       0.0000
    178 N10         -0.3631     0.2981     0.4276 N         1 MOL       0.0000
    179 C61         -2.3368    -2.3720     2.9852 C         1 MOL       0.0000
    180 C62         -1.3749     2.3348    -2.4617 C         1 MOL       0.0000
    181 O37         -1.6784     2.4814     1.1276 O         1 MOL       0.0000
    182 O38          0.8842    -2.4968     3.3179 O         1 MOL       0.0000
    183 O39          0.5569     2.1765    -0.8784 O         1 MOL       0.0000
    184 O40          2.3220    -1.2923     1.2032 O         1 MOL       0.0000
    185 F7          -3.4347    -2.8632     3.6662 F         1 MOL       0.0000
    186 F8          -2.5612     2.2332    -2.4029 F         1 MOL       0.0000
    187 F9          -1.2228    -2.2670    -0.7372 F         1 MOL       0.0000
    188 F10         -1.4128    -3.2982     2.2617 F         1 MOL       0.0000
    189 F11         -0.3170     3.9818    -2.6426 F         1 MOL       0.0000
    190 F12          0.7087     0.0721    -3.2109 F         1 MOL       0.0000
    191 S3          -0.6770     1.8426    -0.1731 S         1 MOL       0.0000
    192 S4           1.1311    -1.7385     1.7255 S         1 MOL       0.0000
    193 Ti9        -11.8875   -11.7688    24.0163 Ti        1 MOL       0.0000
    194 Ti10        -3.1527    -3.3711    21.4895 Ti        1 MOL       0.0000
    195 Ti11        -6.2115   -13.2597    22.2777 Ti        1 MOL       0.0000
    196 Ti12        -8.5983    -3.1664    21.8270 Ti        1 MOL       0.0000
    197 Ti13        -9.5623    -1.0065    20.2637 Ti        1 MOL       0.0000
    198 Ti14        -5.5326   -14.2852    25.0419 Ti        1 MOL       0.0000
    199 Ti15        -9.5510   -11.9382    21.7352 Ti        1 MOL       0.0000
    200 Ti16        -5.2975    -4.3625    22.4958 Ti        1 MOL       0.0000
    201 H57        -13.8020    -8.6926    25.9878 H         1 MOL       0.0000
    202 H58         -0.4138    -6.3604    20.2671 H         1 MOL       0.0000
    203 H59        -13.8837   -12.5737    21.2863 H         1 MOL       0.0000
    204 H60         -2.2112    -1.6048    24.3717 H         1 MOL       0.0000
    205 H61         -2.3532   -16.9718    23.1328 H         1 MOL       0.0000
    206 H62        -11.9766    -2.0768    18.2713 H         1 MOL       0.0000
    207 H63         -7.5883    -1.1634    17.8239 H         1 MOL       0.0000
    208 H64         -3.6187    -2.8503    18.7372 H         1 MOL       0.0000
    209 H65         -2.8127   -11.7642    19.4593 H         1 MOL       0.0000
    210 H66        -12.1242    -3.9369    25.4983 H         1 MOL       0.0000
    211 H67        -14.0995    -9.6836    21.0400 H         1 MOL       0.0000
    212 H68         -0.9454    -5.8507    24.1259 H         1 MOL       0.0000
    213 H69        -10.5316    -8.7109    18.1350 H         1 MOL       0.0000
    214 H70        -13.5244    -1.2594    21.9811 H         1 MOL       0.0000
    215 H71        -11.4634     0.8885    22.8586 H         1 MOL       0.0000
    216 H72          0.2516    -8.5273    20.3841 H         1 MOL       0.0000
    217 H73         -6.5584    -2.4493    21.3724 H         1 MOL       0.0000
    218 H74         -8.4850   -12.7002    23.9522 H         1 MOL       0.0000
    219 H75         -3.3393   -11.5016    26.5051 H         1 MOL       0.0000
    220 H76         -4.2966   -12.4195    26.2806 H         1 MOL       0.0000
    221 H77         -5.2088    -7.5454    27.9014 H         1 MOL       0.0000
    222 H78         -5.2099    -6.4733    26.1799 H         1 MOL       0.0000
    223 H79         -0.6384   -15.1440    23.6045 H         1 MOL       0.0000
    224 H80         -2.2941   -14.7146    23.9726 H         1 MOL       0.0000
    225 C63         -3.3677    -5.3958    24.2680 C         1 MOL       0.0000
    226 C64        -11.6424   -10.1534    20.8249 C         1 MOL       0.0000
    227 C65         -3.5911   -13.2243    22.1353 C         1 MOL       0.0000
    228 C66        -11.3823    -2.4330    22.8027 C         1 MOL       0.0000
    229 C67         -2.7821    -6.2792    25.4070 C         1 MOL       0.0000
    230 C68        -12.2703    -9.2684    19.6964 C         1 MOL       0.0000
    231 C69         -2.2694   -13.0669    21.3514 C         1 MOL       0.0000
    232 C70        -12.7094    -2.5888    23.6804 C         1 MOL       0.0000
    233 C71         -3.4968    -7.0069    26.7252 C         1 MOL       0.0000
    234 C72        -11.5564    -8.5878    18.3581 C         1 MOL       0.0000
    235 C73         -1.2428   -13.7488    21.9875 C         1 MOL       0.0000
    236 C74        -13.7238    -1.8979    23.0760 C         1 MOL       0.0000
    237 C75        -12.9307    -3.4150    25.0752 C         1 MOL       0.0000
    238 C76         -2.0102   -12.2531    19.9117 C         1 MOL       0.0000
    239 C77         -1.4539    -6.4162    25.1482 C         1 MOL       0.0000
    240 C78        -13.5809    -9.1449    19.9917 C         1 MOL       0.0000
    241 C79          0.3008    -5.1520    18.1556 C         1 MOL       0.0000
    242 C80        -10.9555     2.8841    20.8323 C         1 MOL       0.0000
    243 C81         -1.4648    -0.5128    22.1366 C         1 MOL       0.0000
    244 C82        -11.0968    -0.8616    16.2357 C         1 MOL       0.0000
    245 C83         -7.4244    -5.8820    22.9939 C         1 MOL       0.0000
    246 C84         -6.9958   -12.7314    19.0090 C         1 MOL       0.0000
    247 C85         -0.6461    -4.0716    18.7894 C         1 MOL       0.0000
    248 C86        -10.1486     1.8264    20.0348 C         1 MOL       0.0000
    249 C87         -1.9615    -1.1438    21.2302 C         1 MOL       0.0000
    250 C88        -10.4370    -0.4080    17.1645 C         1 MOL       0.0000
    251 C89          0.2811    -6.3063    19.0701 C         1 MOL       0.0000
    252 C90        -14.4753    -8.7442    27.1990 C         1 MOL       0.0000
    253 C91         -1.6462    -0.8970    23.8321 C         1 MOL       0.0000
    254 C92        -14.4739   -13.2623    21.8317 C         1 MOL       0.0000
    255 C93         -4.2703   -12.3902    28.6366 C         1 MOL       0.0000
    256 C94        -11.8524    -1.7631    16.9848 C         1 MOL       0.0000
    257 C95         -2.3546   -17.8694    23.8389 C         1 MOL       0.0000
    258 C96        -11.8377     2.7847    22.4410 C         1 MOL       0.0000
    259 N11        -11.8921     1.6800    23.4068 N         1 MOL       0.0000
    260 N12         -4.0920   -11.9262    27.0199 N         1 MOL       0.0000
    261 N13         -4.7792    -6.9331    27.0396 N         1 MOL       0.0000
    262 N14         -1.4081   -14.5369    23.3892 N         1 MOL       0.0000
    263 O41         -4.5089    -5.4234    24.2495 O         1 MOL       0.0000
    264 O42        -10.4302   -10.5607    20.3363 O         1 MOL       0.0000
    265 O43         -3.8571   -13.7445    23.6068 O         1 MOL       0.0000
    266 O44        -11.2482    -1.4761    21.7858 O         1 MOL       0.0000
    267 O45        -10.4487    -3.2663    23.0955 O         1 MOL       0.0000
    268 O46         -4.4282   -12.8643    21.3312 O         1 MOL       0.0000
    269 O47         -2.7094    -4.6383    23.3030 O         1 MOL       0.0000
    270 O48        -12.3628   -10.4777    22.2194 O         1 MOL       0.0000
    271 O49         -3.9415    -4.5931    20.8480 O         1 MOL       0.0000
    272 O50        -10.3886   -11.1140    23.5309 O         1 MOL       0.0000
    273 O51         -4.8536    -3.0258    22.9038 O         1 MOL       0.0000
    274 O52        -10.6829   -12.8605    22.2918 O         1 MOL       0.0000
    275 O53         -5.7992   -14.7801    23.0819 O         1 MOL       0.0000
    276 O54         -8.9245    -1.5489    22.1241 O         1 MOL       0.0000
    277 O55         -6.3559   -12.7392    24.2195 O         1 MOL       0.0000
    278 O56         -8.8049    -2.7718    19.8829 O         1 MOL       0.0000
    279 O57         -6.3922    -5.6878    23.1584 O         1 MOL       0.0000
    280 O58         -8.1781   -12.2382    19.5748 O         1 MOL       0.0000
    281 O59         -4.2125   -15.8478    25.1373 O         1 MOL       0.0000
    282 O60        -10.1804     0.7065    20.7380 O         1 MOL       0.0000
    283 O61         -5.3478   -13.6785    26.9200 O         1 MOL       0.0000
    284 O62        -10.5248    -0.8804    18.6507 O         1 MOL       0.0000
    285 O63         -6.2272   -13.0655    19.8979 O         1 MOL       0.0000
    286 O64         -8.2791    -5.0151    22.5905 O         1 MOL       0.0000
    287 O65         -2.5492    -2.0447    21.9588 O         1 MOL       0.0000
    288 O66        -13.3247   -12.3855    23.7148 O         1 MOL       0.0000
    289 O67         -1.4385    -4.2011    20.2204 O         1 MOL       0.0000
    290 O68        -12.9351   -10.8461    25.8127 O         1 MOL       0.0000
    291 O69         -6.7273    -3.2857    21.6393 O         1 MOL       0.0000
    292 O70         -8.1451   -12.7810    22.7830 O         1 MOL       0.0000
    293 O71         -3.3367    -2.3457    19.3217 O         1 MOL       0.0000
    294 O72         -8.1060    -0.4619    18.4262 O         1 MOL       0.0000
    295 H81         -6.1536   -10.1152    24.2880 H         1 MOL       0.0000
    296 H82         -4.5393   -13.3084    17.1852 H         1 MOL       0.0000
    297 H83         -9.8467    -2.1690    26.1110 H         1 MOL       0.0000
    298 H84         -5.7824    -7.9396    23.6862 H         1 MOL       0.0000
    299 H85         -9.9644    -8.8040    23.8455 H         1 MOL       0.0000
    300 H86         -8.4241   -12.8791    17.1047 H         1 MOL       0.0000
    301 H87         -8.2121   -10.5312    24.2791 H         1 MOL       0.0000
    302 H88         -9.5951    -6.6269    23.2595 H         1 MOL       0.0000
    303 H89         -7.5181    -2.7321    24.7682 H         1 MOL       0.0000
    304 H90        -16.6980    -3.8683    18.3626 H         1 MOL       0.0000
    305 C97         -7.6587    -7.1611    23.4022 C         1 MOL       0.0000
    306 C98         -8.0703    -9.5823    24.0729 C         1 MOL       0.0000
    307 C99         -7.8556    -2.3998    25.9765 C         1 MOL       0.0000
    308 C100        -6.5254   -13.0650    17.3072 C         1 MOL       0.0000
    309 C101        -8.8471    -7.3997    23.4741 C         1 MOL       0.0000
    310 C102        -6.8993    -9.3477    24.0588 C         1 MOL       0.0000
    311 C103        -9.1681    -2.0726    26.7234 C         1 MOL       0.0000
    312 C104        -5.2075   -13.3901    16.5503 C         1 MOL       0.0000
    313 C105        -6.9712    -2.2847    26.7500 C         1 MOL       0.0000
    314 C106        -7.4091   -13.1451    16.5020 C         1 MOL       0.0000
    315 C107        -6.6942    -8.1381    23.7312 C         1 MOL       0.0000
    316 C108        -9.0507    -8.6094    23.8021 C         1 MOL       0.0000
    317 N15        -24.4405    -1.9200    33.5855 N         1 MOL       0.0000
    318 N16        -22.4521    -1.8679    32.2511 N         1 MOL       0.0000
    319 C109       -24.4270    -0.8924    32.4522 C         1 MOL       0.0000
    320 C110       -23.1921    -0.8584    31.5964 C         1 MOL       0.0000
    321 C111       -20.6703    -0.9844    32.4162 C         1 MOL       0.0000
    322 C112       -25.5403    -2.1392    34.9838 C         1 MOL       0.0000
    323 C113       -23.2226    -2.4944    33.4656 C         1 MOL       0.0000
    324 C114       -21.0560    -2.0512    31.9139 C         1 MOL       0.0000
    325 H91        -25.2734    -0.2017    32.4464 H         1 MOL       0.0000
    326 H92        -22.7863    -0.1968    30.6288 H         1 MOL       0.0000
    327 H93        -20.9735    -0.1094    31.7278 H         1 MOL       0.0000
    328 H94        -26.1365    -1.2393    35.2905 H         1 MOL       0.0000
    329 H95        -21.0939    -0.8654    33.7269 H         1 MOL       0.0000
    330 H96        -26.0381    -2.7454    34.6753 H         1 MOL       0.0000
    331 H97        -19.6248    -1.1493    32.1266 H         1 MOL       0.0000
    332 H98        -20.6263    -2.1592    30.6077 H         1 MOL       0.0000
    333 H99        -25.1824    -2.5597    36.0186 H         1 MOL       0.0000
    334 H100       -22.8850    -3.2686    34.2348 H         1 MOL       0.0000
    335 H101       -20.7670    -2.9301    32.5942 H         1 MOL       0.0000
    336 N17        -25.0396     1.9057    34.6669 N         1 MOL       0.0000
    337 C115       -23.3589     1.7208    38.0041 C         1 MOL       0.0000
    338 C116       -24.5445     5.5164    32.9283 C         1 MOL       0.0000
    339 O73        -25.8246     0.4782    38.1810 O         1 MOL       0.0000
    340 O74        -22.4100    -0.4551    36.4989 O         1 MOL       0.0000
    341 O75        -24.2524     2.4204    31.3021 O         1 MOL       0.0000
    342 O76        -22.5558     3.6446    30.8769 O         1 MOL       0.0000
    343 F13        -24.4386     1.6784    39.3397 F         1 MOL       0.0000
    344 F14        -26.6981     5.8933    36.0194 F         1 MOL       0.0000
    345 F15        -22.8021     2.5642    38.3633 F         1 MOL       0.0000
    346 F16        -25.3134    -0.4494    40.4938 F         1 MOL       0.0000
    347 F17        -25.5923     6.3983    33.2733 F         1 MOL       0.0000
    348 F18        -24.1009     5.6386    31.2333 F         1 MOL       0.0000
    349 S5         -24.5109     1.0134    35.8323 S         1 MOL       0.0000
    350 S6         -23.5039     2.9781    31.9605 S         1 MOL       0.0000
    351 N18         -4.5713    -7.4244    19.2646 N         1 MOL       0.0000
    352 N19         -6.5507    -7.5455    19.6418 N         1 MOL       0.0000
    353 C117        -3.4220    -6.8906    18.9213 C         1 MOL       0.0000
    354 C118        -5.7320    -6.7664    19.2297 C         1 MOL       0.0000
    355 C119        -4.6443    -8.6583    19.7205 C         1 MOL       0.0000
    356 C120        -2.2434    -7.5543    17.7075 C         1 MOL       0.0000
    357 C121        -5.8866    -8.7243    19.9541 C         1 MOL       0.0000
    358 C122        -7.8495    -7.2357    19.4765 C         1 MOL       0.0000
    359 H102        -3.2446    -6.8826    20.0974 H         1 MOL       0.0000
    360 H103        -3.6879    -5.9178    18.4799 H         1 MOL       0.0000
    361 H104        -5.9510    -5.7993    18.8214 H         1 MOL       0.0000
    362 H105        -1.4183    -7.2071    17.7423 H         1 MOL       0.0000
    363 H106        -3.8266    -9.3643    19.8134 H         1 MOL       0.0000
    364 H107        -8.4947    -7.5735    20.6030 H         1 MOL       0.0000
    365 H108        -8.1226    -6.2282    19.2607 H         1 MOL       0.0000
    366 H109        -2.0703    -8.5574    18.0312 H         1 MOL       0.0000
    367 H110        -6.3267    -9.5233    20.2488 H         1 MOL       0.0000
    368 H111        -2.3288    -7.3985    16.4619 H         1 MOL       0.0000
    369 H112        -7.8509    -7.6748    18.4356 H         1 MOL       0.0000
    370 N20         -4.9981    -6.7679    13.5226 N         1 MOL       0.0000
    371 C123        -6.9718    -9.4380    16.0802 C         1 MOL       0.0000
    372 C124        -6.0099    -4.7312    10.6333 C         1 MOL       0.0000
    373 O77         -6.3134    -4.5846    14.2226 O         1 MOL       0.0000
    374 O78         -3.7508    -9.5628    16.4129 O         1 MOL       0.0000
    375 O79         -4.0781    -4.8895    12.2166 O         1 MOL       0.0000
    376 O80         -2.3130    -8.3583    14.2982 O         1 MOL       0.0000
    377 F19         -8.0697    -9.9292    16.7612 F         1 MOL       0.0000
    378 F20         -7.1962    -4.8328    10.6921 F         1 MOL       0.0000
    379 F21         -5.8578    -9.3330    12.3578 F         1 MOL       0.0000
    380 F22         -6.0478   -10.3642    15.3567 F         1 MOL       0.0000
    381 F23         -4.9520    -3.0842    10.4524 F         1 MOL       0.0000
    382 F24         -3.9263    -6.9939     9.8841 F         1 MOL       0.0000
    383 S7          -5.3120    -5.2234    12.9219 S         1 MOL       0.0000
    384 S8          -3.5039    -8.8045    14.8205 S         1 MOL       0.0000
    385 Ti17       -13.7695     9.9102    10.8643 Ti        1 MOL       0.0000
    386 Ti18        -5.0347    18.3079     8.3375 Ti        1 MOL       0.0000
    387 Ti19        -8.0935     8.4193     9.1257 Ti        1 MOL       0.0000
    388 Ti20       -10.4803    18.5126     8.6750 Ti        1 MOL       0.0000
    389 Ti21       -11.4443    20.6725     7.1117 Ti        1 MOL       0.0000
    390 Ti22        -7.4146     7.3938    11.8899 Ti        1 MOL       0.0000
    391 Ti23       -11.4330     9.7408     8.5832 Ti        1 MOL       0.0000
    392 Ti24        -7.1795    17.3165     9.3438 Ti        1 MOL       0.0000
    393 H113       -15.6840    12.9864    12.8358 H         1 MOL       0.0000
    394 H114        -2.2958    15.3186     7.1151 H         1 MOL       0.0000
    395 H115       -15.7657     9.1053     8.1343 H         1 MOL       0.0000
    396 H116        -4.0932    20.0742    11.2197 H         1 MOL       0.0000
    397 H117        -4.2352     4.7072     9.9808 H         1 MOL       0.0000
    398 H118       -13.8586    19.6022     5.1193 H         1 MOL       0.0000
    399 H119        -9.4703    20.5156     4.6719 H         1 MOL       0.0000
    400 H120        -5.5007    18.8287     5.5852 H         1 MOL       0.0000
    401 H121        -4.6947     9.9148     6.3073 H         1 MOL       0.0000
    402 H122       -14.0062    17.7421    12.3463 H         1 MOL       0.0000
    403 H123       -15.9815    11.9954     7.8880 H         1 MOL       0.0000
    404 H124        -2.8274    15.8283    10.9739 H         1 MOL       0.0000
    405 H125       -12.4136    12.9681     4.9830 H         1 MOL       0.0000
    406 H126       -15.4064    20.4196     8.8291 H         1 MOL       0.0000
    407 H127       -13.3454    22.5675     9.7066 H         1 MOL       0.0000
    408 H128        -1.6304    13.1517     7.2321 H         1 MOL       0.0000
    409 H129        -8.4404    19.2297     8.2204 H         1 MOL       0.0000
    410 H130       -10.3670     8.9788    10.8002 H         1 MOL       0.0000
    411 H131        -5.2213    10.1774    13.3531 H         1 MOL       0.0000
    412 H132        -6.1786     9.2595    13.1286 H         1 MOL       0.0000
    413 H133        -7.0908    14.1336    14.7494 H         1 MOL       0.0000
    414 H134        -7.0919    15.2057    13.0279 H         1 MOL       0.0000
    415 H135        -2.5204     6.5350    10.4525 H         1 MOL       0.0000
    416 H136        -4.1761     6.9644    10.8206 H         1 MOL       0.0000
    417 C125        -5.2497    16.2832    11.1160 C         1 MOL       0.0000
    418 C126       -13.5244    11.5256     7.6729 C         1 MOL       0.0000
    419 C127        -5.4731     8.4547     8.9833 C         1 MOL       0.0000
    420 C128       -13.2643    19.2460     9.6507 C         1 MOL       0.0000
    421 C129        -4.6641    15.3998    12.2550 C         1 MOL       0.0000
    422 C130       -14.1523    12.4106     6.5444 C         1 MOL       0.0000
    423 C131        -4.1514     8.6121     8.1994 C         1 MOL       0.0000
    424 C132       -14.5914    19.0902    10.5284 C         1 MOL       0.0000
    425 C133        -5.3788    14.6721    13.5732 C         1 MOL       0.0000
    426 C134       -13.4384    13.0912     5.2061 C         1 MOL       0.0000
    427 C135        -3.1248     7.9302     8.8355 C         1 MOL       0.0000
    428 C136       -15.6058    19.7811     9.9240 C         1 MOL       0.0000
    429 C137       -14.8127    18.2640    11.9232 C         1 MOL       0.0000
    430 C138        -3.8922     9.4259     6.7597 C         1 MOL       0.0000
    431 C139        -3.3359    15.2628    11.9962 C         1 MOL       0.0000
    432 C140       -15.4629    12.5341     6.8397 C         1 MOL       0.0000
    433 C141        -1.5812    16.5270     5.0036 C         1 MOL       0.0000
    434 C142       -12.8375    24.5631     7.6803 C         1 MOL       0.0000
    435 C143        -3.3468    21.1662     8.9846 C         1 MOL       0.0000
    436 C144       -12.9788    20.8174     3.0837 C         1 MOL       0.0000
    437 C145        -9.3064    15.7970     9.8419 C         1 MOL       0.0000
    438 C146        -8.8778     8.9476     5.8570 C         1 MOL       0.0000
    439 C147        -2.5281    17.6074     5.6374 C         1 MOL       0.0000
    440 C148       -12.0306    23.5054     6.8828 C         1 MOL       0.0000
    441 C149        -3.8435    20.5352     8.0782 C         1 MOL       0.0000
    442 C150       -12.3190    21.2710     4.0125 C         1 MOL       0.0000
    443 C151        -1.6009    15.3727     5.9181 C         1 MOL       0.0000
    444 C152       -16.3573    12.9348    14.0470 C         1 MOL       0.0000
    445 C153        -3.5282    20.7820    10.6801 C         1 MOL       0.0000
    446 C154       -16.3559     8.4167     8.6797 C         1 MOL       0.0000
    447 C155        -6.1523     9.2888    15.4846 C         1 MOL       0.0000
    448 C156       -13.7344    19.9159     3.8328 C         1 MOL       0.0000
    449 C157        -4.2366     3.8096    10.6869 C         1 MOL       0.0000
    450 C158       -13.7197    24.4637     9.2890 C         1 MOL       0.0000
    451 N21        -13.7741    23.3590    10.2548 N         1 MOL       0.0000
    452 N22         -5.9740     9.7528    13.8679 N         1 MOL       0.0000
    453 N23         -6.6612    14.7459    13.8876 N         1 MOL       0.0000
    454 N24         -3.2901     7.1421    10.2372 N         1 MOL       0.0000
    455 O81         -6.3909    16.2556    11.0975 O         1 MOL       0.0000
    456 O82        -12.3122    11.1183     7.1843 O         1 MOL       0.0000
    457 O83         -5.7391     7.9345    10.4548 O         1 MOL       0.0000
    458 O84        -13.1302    20.2029     8.6338 O         1 MOL       0.0000
    459 O85        -12.3307    18.4127     9.9435 O         1 MOL       0.0000
    460 O86         -6.3102     8.8147     8.1792 O         1 MOL       0.0000
    461 O87         -4.5914    17.0407    10.1510 O         1 MOL       0.0000
    462 O88        -14.2448    11.2013     9.0674 O         1 MOL       0.0000
    463 O89         -5.8235    17.0859     7.6960 O         1 MOL       0.0000
    464 O90        -12.2706    10.5650    10.3789 O         1 MOL       0.0000
    465 O91         -6.7356    18.6532     9.7518 O         1 MOL       0.0000
    466 O92        -12.5649     8.8185     9.1398 O         1 MOL       0.0000
    467 O93         -7.6812     6.8989     9.9299 O         1 MOL       0.0000
    468 O94        -10.8065    20.1301     8.9721 O         1 MOL       0.0000
    469 O95         -8.2379     8.9398    11.0675 O         1 MOL       0.0000
    470 O96        -10.6869    18.9072     6.7309 O         1 MOL       0.0000
    471 O97         -8.2742    15.9912    10.0064 O         1 MOL       0.0000
    472 O98        -10.0601     9.4408     6.4228 O         1 MOL       0.0000
    473 O99         -6.0945     5.8312    11.9853 O         1 MOL       0.0000
    474 O100       -12.0624    22.3855     7.5860 O         1 MOL       0.0000
    475 O101        -7.2298     8.0005    13.7680 O         1 MOL       0.0000
    476 O102       -12.4068    20.7986     5.4987 O         1 MOL       0.0000
    477 O103        -8.1092     8.6135     6.7459 O         1 MOL       0.0000
    478 O104       -10.1611    16.6639     9.4385 O         1 MOL       0.0000
    479 O105        -4.4312    19.6343     8.8068 O         1 MOL       0.0000
    480 O106       -15.2067     9.2935    10.5628 O         1 MOL       0.0000
    481 O107        -3.3205    17.4779     7.0684 O         1 MOL       0.0000
    482 O108       -14.8171    10.8329    12.6607 O         1 MOL       0.0000
    483 O109        -8.6093    18.3933     8.4873 O         1 MOL       0.0000
    484 O110       -10.0271     8.8980     9.6310 O         1 MOL       0.0000
    485 O111        -5.2187    19.3333     6.1697 O         1 MOL       0.0000
    486 O112        -9.9880    21.2171     5.2742 O         1 MOL       0.0000
    487 H137        -8.0356    11.5638    11.1360 H         1 MOL       0.0000
    488 H138        -6.4213     8.3706     4.0332 H         1 MOL       0.0000
    489 H139       -11.7287    19.5100    12.9590 H         1 MOL       0.0000
    490 H140        -7.6644    13.7394    10.5342 H         1 MOL       0.0000
    491 H141       -11.8464    12.8750    10.6935 H         1 MOL       0.0000
    492 H142       -10.3061     8.7999     3.9527 H         1 MOL       0.0000
    493 H143       -10.0941    11.1478    11.1271 H         1 MOL       0.0000
    494 H144       -11.4771    15.0521    10.1075 H         1 MOL       0.0000
    495 H145        -9.4001    18.9469    11.6162 H         1 MOL       0.0000
    496 H146       -18.5800    17.8107     5.2106 H         1 MOL       0.0000
    497 C159        -9.5407    14.5179    10.2502 C         1 MOL       0.0000
    498 C160        -9.9523    12.0967    10.9209 C         1 MOL       0.0000
    499 C161        -9.7376    19.2792    12.8245 C         1 MOL       0.0000
    500 C162        -8.4074     8.6140     4.1552 C         1 MOL       0.0000
    501 C163       -10.7291    14.2793    10.3221 C         1 MOL       0.0000
    502 C164        -8.7813    12.3313    10.9068 C         1 MOL       0.0000
    503 C165       -11.0501    19.6064    13.5714 C         1 MOL       0.0000
    504 C166        -7.0895     8.2889     3.3983 C         1 MOL       0.0000
    505 C167        -8.8532    19.3943    13.5980 C         1 MOL       0.0000
    506 C168        -9.2911     8.5339     3.3500 C         1 MOL       0.0000
    507 C169        -8.5762    13.5409    10.5792 C         1 MOL       0.0000
    508 C170       -10.9327    13.0696    10.6501 C         1 MOL       0.0000
    509 N25        -26.3225    19.7590    20.4335 N         1 MOL       0.0000
    510 N26        -24.3341    19.8111    19.0991 N         1 MOL       0.0000
    511 C171       -26.3090    20.7866    19.3002 C         1 MOL       0.0000
    512 C172       -25.0741    20.8206    18.4444 C         1 MOL       0.0000
    513 C173       -22.5523    20.6946    19.2642 C         1 MOL       0.0000
    514 C174       -27.4223    19.5398    21.8318 C         1 MOL       0.0000
    515 C175       -25.1046    19.1846    20.3136 C         1 MOL       0.0000
    516 C176       -22.9380    19.6278    18.7619 C         1 MOL       0.0000
    517 H147       -27.1554    21.4773    19.2944 H         1 MOL       0.0000
    518 H148       -24.6683    21.4822    17.4768 H         1 MOL       0.0000
    519 H149       -22.8555    21.5696    18.5758 H         1 MOL       0.0000
    520 H150       -28.0185    20.4397    22.1385 H         1 MOL       0.0000
    521 H151       -22.9759    20.8136    20.5749 H         1 MOL       0.0000
    522 H152       -27.9201    18.9336    21.5233 H         1 MOL       0.0000
    523 H153       -21.5068    20.5297    18.9746 H         1 MOL       0.0000
    524 H154       -22.5083    19.5198    17.4557 H         1 MOL       0.0000
    525 H155       -27.0644    19.1193    22.8666 H         1 MOL       0.0000
    526 H156       -24.7670    18.4104    21.0828 H         1 MOL       0.0000
    527 H157       -22.6490    18.7489    19.4422 H         1 MOL       0.0000
    528 N27        -26.9216    23.5847    21.5149 N         1 MOL       0.0000
    529 C177       -25.2409    23.3998    24.8521 C         1 MOL       0.0000
    530 C178       -26.4265    27.1954    19.7763 C         1 MOL       0.0000
    531 O113       -27.7066    22.1572    25.0290 O         1 MOL       0.0000
    532 O114       -24.2920    21.2239    23.3469 O         1 MOL       0.0000
    533 O115       -26.1344    24.0994    18.1501 O         1 MOL       0.0000
    534 O116       -24.4378    25.3236    17.7249 O         1 MOL       0.0000
    535 F25        -26.3206    23.3574    26.1877 F         1 MOL       0.0000
    536 F26        -28.5801    27.5723    22.8674 F         1 MOL       0.0000
    537 F27        -24.6841    24.2432    25.2113 F         1 MOL       0.0000
    538 F28        -27.1954    21.2296    27.3418 F         1 MOL       0.0000
    539 F29        -27.4743    28.0773    20.1213 F         1 MOL       0.0000
    540 F30        -25.9829    27.3176    18.0813 F         1 MOL       0.0000
    541 S9         -26.3929    22.6924    22.6803 S         1 MOL       0.0000
    542 S10        -25.3859    24.6571    18.8085 S         1 MOL       0.0000
    543 N28         -6.4533    14.2546     6.1126 N         1 MOL       0.0000
    544 N29         -8.4327    14.1335     6.4898 N         1 MOL       0.0000
    545 C179        -5.3040    14.7884     5.7693 C         1 MOL       0.0000
    546 C180        -7.6140    14.9126     6.0777 C         1 MOL       0.0000
    547 C181        -6.5263    13.0207     6.5685 C         1 MOL       0.0000
    548 C182        -4.1254    14.1247     4.5555 C         1 MOL       0.0000
    549 C183        -7.7686    12.9547     6.8021 C         1 MOL       0.0000
    550 C184        -9.7315    14.4433     6.3245 C         1 MOL       0.0000
    551 H158        -5.1266    14.7964     6.9454 H         1 MOL       0.0000
    552 H159        -5.5699    15.7612     5.3279 H         1 MOL       0.0000
    553 H160        -7.8330    15.8797     5.6694 H         1 MOL       0.0000
    554 H161        -3.3003    14.4719     4.5903 H         1 MOL       0.0000
    555 H162        -5.7086    12.3147     6.6614 H         1 MOL       0.0000
    556 H163       -10.3767    14.1055     7.4510 H         1 MOL       0.0000
    557 H164       -10.0046    15.4508     6.1087 H         1 MOL       0.0000
    558 H165        -3.9523    13.1216     4.8792 H         1 MOL       0.0000
    559 H166        -8.2087    12.1557     7.0968 H         1 MOL       0.0000
    560 H167        -4.2108    14.2805     3.3099 H         1 MOL       0.0000
    561 H168        -9.7329    14.0042     5.2836 H         1 MOL       0.0000
    562 N30         -6.8801    14.9111     0.3706 N         1 MOL       0.0000
    563 C185        -8.8538    12.2410     2.9282 C         1 MOL       0.0000
    564 C186        -7.8919    16.9478    -2.5187 C         1 MOL       0.0000
    565 O117        -8.1954    17.0944     1.0706 O         1 MOL       0.0000
    566 O118        -5.6328    12.1162     3.2609 O         1 MOL       0.0000
    567 O119        -5.9601    16.7895    -0.9354 O         1 MOL       0.0000
    568 O120        -4.1950    13.3207     1.1462 O         1 MOL       0.0000
    569 F31         -9.9517    11.7498     3.6092 F         1 MOL       0.0000
    570 F32         -9.0782    16.8462    -2.4599 F         1 MOL       0.0000
    571 F33         -7.7398    12.3460    -0.7942 F         1 MOL       0.0000
    572 F34         -7.9298    11.3148     2.2047 F         1 MOL       0.0000
    573 F35         -6.8340    18.5948    -2.6996 F         1 MOL       0.0000
    574 F36         -5.8083    14.6851    -3.2679 F         1 MOL       0.0000
    575 S11         -7.1940    16.4556    -0.2301 S         1 MOL       0.0000
    576 S12         -5.3859    12.8745     1.6685 S         1 MOL       0.0000
    577 Ti25       -18.4045     2.8442    23.9593 Ti        1 MOL       0.0000
    578 Ti26        -9.6697    11.2419    21.4325 Ti        1 MOL       0.0000
    579 Ti27       -12.7285     1.3533    22.2207 Ti        1 MOL       0.0000
    580 Ti28       -15.1153    11.4466    21.7700 Ti        1 MOL       0.0000
    581 Ti29       -16.0793    13.6065    20.2067 Ti        1 MOL       0.0000
    582 Ti30       -12.0496     0.3278    24.9849 Ti        1 MOL       0.0000
    583 Ti31       -16.0680     2.6748    21.6782 Ti        1 MOL       0.0000
    584 Ti32       -11.8145    10.2505    22.4388 Ti        1 MOL       0.0000
    585 H169       -20.3190     5.9204    25.9308 H         1 MOL       0.0000
    586 H170        -6.9308     8.2526    20.2101 H         1 MOL       0.0000
    587 H171       -20.4007     2.0393    21.2293 H         1 MOL       0.0000
    588 H172        -8.7282    13.0082    24.3147 H         1 MOL       0.0000
    589 H173        -8.8702    -2.3588    23.0758 H         1 MOL       0.0000
    590 H174       -18.4936    12.5362    18.2143 H         1 MOL       0.0000
    591 H175       -14.1053    13.4496    17.7669 H         1 MOL       0.0000
    592 H176       -10.1357    11.7627    18.6802 H         1 MOL       0.0000
    593 H177        -9.3297     2.8488    19.4023 H         1 MOL       0.0000
    594 H178       -18.6412    10.6761    25.4413 H         1 MOL       0.0000
    595 H179       -20.6165     4.9294    20.9830 H         1 MOL       0.0000
    596 H180        -7.4624     8.7623    24.0689 H         1 MOL       0.0000
    597 H181       -17.0486     5.9021    18.0780 H         1 MOL       0.0000
    598 H182       -20.0414    13.3536    21.9241 H         1 MOL       0.0000
    599 H183       -17.9804    15.5015    22.8016 H         1 MOL       0.0000
    600 H184        -6.2654     6.0857    20.3271 H         1 MOL       0.0000
    601 H185       -13.0754    12.1637    21.3154 H         1 MOL       0.0000
    602 H186       -15.0020     1.9128    23.8952 H         1 MOL       0.0000
    603 H187        -9.8563     3.1114    26.4481 H         1 MOL       0.0000
    604 H188       -10.8136     2.1935    26.2236 H         1 MOL       0.0000
    605 H189       -11.7258     7.0676    27.8444 H         1 MOL       0.0000
    606 H190       -11.7269     8.1397    26.1229 H         1 MOL       0.0000
    607 H191        -7.1554    -0.5310    23.5475 H         1 MOL       0.0000
    608 H192        -8.8111    -0.1016    23.9156 H         1 MOL       0.0000
    609 C187        -9.8847     9.2172    24.2110 C         1 MOL       0.0000
    610 C188       -18.1594     4.4596    20.7679 C         1 MOL       0.0000
    611 C189       -10.1081     1.3887    22.0783 C         1 MOL       0.0000
    612 C190       -17.8993    12.1800    22.7457 C         1 MOL       0.0000
    613 C191        -9.2991     8.3338    25.3500 C         1 MOL       0.0000
    614 C192       -18.7873     5.3446    19.6394 C         1 MOL       0.0000
    615 C193        -8.7864     1.5461    21.2944 C         1 MOL       0.0000
    616 C194       -19.2264    12.0242    23.6234 C         1 MOL       0.0000
    617 C195       -10.0138     7.6061    26.6682 C         1 MOL       0.0000
    618 C196       -18.0734     6.0252    18.3011 C         1 MOL       0.0000
    619 C197        -7.7598     0.8642    21.9305 C         1 MOL       0.0000
    620 C198       -20.2408    12.7151    23.0190 C         1 MOL       0.0000
    621 C199       -19.4477    11.1980    25.0182 C         1 MOL       0.0000
    622 C200        -8.5272     2.3599    19.8547 C         1 MOL       0.0000
    623 C201        -7.9709     8.1968    25.0912 C         1 MOL       0.0000
    624 C202       -20.0979     5.4681    19.9347 C         1 MOL       0.0000
    625 C203        -6.2162     9.4610    18.0986 C         1 MOL       0.0000
    626 C204       -17.4725    17.4971    20.7753 C         1 MOL       0.0000
    627 C205        -7.9818    14.1002    22.0796 C         1 MOL       0.0000
    628 C206       -17.6138    13.7514    16.1787 C         1 MOL       0.0000
    629 C207       -13.9414     8.7310    22.9369 C         1 MOL       0.0000
    630 C208       -13.5128     1.8816    18.9520 C         1 MOL       0.0000
    631 C209        -7.1631    10.5414    18.7324 C         1 MOL       0.0000
    632 C210       -16.6656    16.4394    19.9778 C         1 MOL       0.0000
    633 C211        -8.4785    13.4692    21.1732 C         1 MOL       0.0000
    634 C212       -16.9540    14.2050    17.1075 C         1 MOL       0.0000
    635 C213        -6.2359     8.3067    19.0131 C         1 MOL       0.0000
    636 C214       -20.9923     5.8688    27.1420 C         1 MOL       0.0000
    637 C215        -8.1632    13.7160    23.7751 C         1 MOL       0.0000
    638 C216       -20.9909     1.3507    21.7747 C         1 MOL       0.0000
    639 C217       -10.7873     2.2228    28.5796 C         1 MOL       0.0000
    640 C218       -18.3694    12.8499    16.9278 C         1 MOL       0.0000
    641 C219        -8.8716    -3.2564    23.7819 C         1 MOL       0.0000
    642 C220       -18.3547    17.3977    22.3840 C         1 MOL       0.0000
    643 N31        -18.4091    16.2930    23.3498 N         1 MOL       0.0000
    644 N32        -10.6090     2.6868    26.9629 N         1 MOL       0.0000
    645 N33        -11.2962     7.6799    26.9826 N         1 MOL       0.0000
    646 N34         -7.9251     0.0761    23.3322 N         1 MOL       0.0000
    647 O121       -11.0259     9.1896    24.1925 O         1 MOL       0.0000
    648 O122       -16.9472     4.0523    20.2793 O         1 MOL       0.0000
    649 O123       -10.3741     0.8685    23.5498 O         1 MOL       0.0000
    650 O124       -17.7652    13.1369    21.7288 O         1 MOL       0.0000
    651 O125       -16.9657    11.3467    23.0385 O         1 MOL       0.0000
    652 O126       -10.9452     1.7487    21.2742 O         1 MOL       0.0000
    653 O127        -9.2264     9.9747    23.2460 O         1 MOL       0.0000
    654 O128       -18.8798     4.1353    22.1624 O         1 MOL       0.0000
    655 O129       -10.4585    10.0199    20.7910 O         1 MOL       0.0000
    656 O130       -16.9056     3.4990    23.4739 O         1 MOL       0.0000
    657 O131       -11.3706    11.5872    22.8468 O         1 MOL       0.0000
    658 O132       -17.1999     1.7525    22.2348 O         1 MOL       0.0000
    659 O133       -12.3162    -0.1671    23.0249 O         1 MOL       0.0000
    660 O134       -15.4415    13.0641    22.0671 O         1 MOL       0.0000
    661 O135       -12.8729     1.8738    24.1625 O         1 MOL       0.0000
    662 O136       -15.3219    11.8412    19.8259 O         1 MOL       0.0000
    663 O137       -12.9092     8.9252    23.1014 O         1 MOL       0.0000
    664 O138       -14.6951     2.3748    19.5178 O         1 MOL       0.0000
    665 O139       -10.7295    -1.2348    25.0803 O         1 MOL       0.0000
    666 O140       -16.6974    15.3195    20.6810 O         1 MOL       0.0000
    667 O141       -11.8648     0.9345    26.8630 O         1 MOL       0.0000
    668 O142       -17.0418    13.7326    18.5937 O         1 MOL       0.0000
    669 O143       -12.7442     1.5475    19.8409 O         1 MOL       0.0000
    670 O144       -14.7961     9.5979    22.5335 O         1 MOL       0.0000
    671 O145        -9.0662    12.5683    21.9018 O         1 MOL       0.0000
    672 O146       -19.8417     2.2275    23.6578 O         1 MOL       0.0000
    673 O147        -7.9555    10.4119    20.1634 O         1 MOL       0.0000
    674 O148       -19.4521     3.7669    25.7557 O         1 MOL       0.0000
    675 O149       -13.2443    11.3273    21.5823 O         1 MOL       0.0000
    676 O150       -14.6621     1.8320    22.7260 O         1 MOL       0.0000
    677 O151        -9.8537    12.2673    19.2647 O         1 MOL       0.0000
    678 O152       -14.6230    14.1511    18.3692 O         1 MOL       0.0000
    679 H193       -12.6706     4.4978    24.2310 H         1 MOL       0.0000
    680 H194       -11.0563     1.3046    17.1282 H         1 MOL       0.0000
    681 H195       -16.3637    12.4440    26.0540 H         1 MOL       0.0000
    682 H196       -12.2994     6.6734    23.6292 H         1 MOL       0.0000
    683 H197       -16.4814     5.8090    23.7885 H         1 MOL       0.0000
    684 H198       -14.9411     1.7339    17.0477 H         1 MOL       0.0000
    685 H199       -14.7291     4.0818    24.2221 H         1 MOL       0.0000
    686 H200       -16.1121     7.9861    23.2025 H         1 MOL       0.0000
    687 H201       -14.0351    11.8809    24.7112 H         1 MOL       0.0000
    688 H202       -23.2150    10.7447    18.3056 H         1 MOL       0.0000
    689 C221       -14.1757     7.4519    23.3452 C         1 MOL       0.0000
    690 C222       -14.5873     5.0307    24.0159 C         1 MOL       0.0000
    691 C223       -14.3726    12.2132    25.9195 C         1 MOL       0.0000
    692 C224       -13.0424     1.5480    17.2502 C         1 MOL       0.0000
    693 C225       -15.3641     7.2133    23.4171 C         1 MOL       0.0000
    694 C226       -13.4163     5.2653    24.0018 C         1 MOL       0.0000
    695 C227       -15.6851    12.5404    26.6664 C         1 MOL       0.0000
    696 C228       -11.7245     1.2229    16.4933 C         1 MOL       0.0000
    697 C229       -13.4882    12.3283    26.6930 C         1 MOL       0.0000
    698 C230       -13.9261     1.4679    16.4450 C         1 MOL       0.0000
    699 C231       -13.2112     6.4749    23.6742 C         1 MOL       0.0000
    700 C232       -15.5677     6.0036    23.7451 C         1 MOL       0.0000
    701 N35        -30.9575    12.6930    33.5285 N         1 MOL       0.0000
    702 N36        -28.9691    12.7451    32.1941 N         1 MOL       0.0000
    703 C233       -30.9440    13.7206    32.3952 C         1 MOL       0.0000
    704 C234       -29.7091    13.7546    31.5394 C         1 MOL       0.0000
    705 C235       -27.1873    13.6286    32.3592 C         1 MOL       0.0000
    706 C236       -32.0573    12.4738    34.9268 C         1 MOL       0.0000
    707 C237       -29.7396    12.1186    33.4086 C         1 MOL       0.0000
    708 C238       -27.5730    12.5618    31.8569 C         1 MOL       0.0000
    709 H203       -31.7904    14.4113    32.3894 H         1 MOL       0.0000
    710 H204       -29.3033    14.4162    30.5718 H         1 MOL       0.0000
    711 H205       -27.4905    14.5036    31.6708 H         1 MOL       0.0000
    712 H206       -32.6535    13.3737    35.2335 H         1 MOL       0.0000
    713 H207       -27.6109    13.7476    33.6699 H         1 MOL       0.0000
    714 H208       -32.5551    11.8676    34.6183 H         1 MOL       0.0000
    715 H209       -26.1418    13.4637    32.0696 H         1 MOL       0.0000
    716 H210       -27.1433    12.4538    30.5507 H         1 MOL       0.0000
    717 H211       -31.6994    12.0533    35.9616 H         1 MOL       0.0000
    718 H212       -29.4020    11.3444    34.1778 H         1 MOL       0.0000
    719 H213       -27.2840    11.6829    32.5372 H         1 MOL       0.0000
    720 N37        -31.5566    16.5187    34.6099 N         1 MOL       0.0000
    721 C239       -29.8759    16.3338    37.9471 C         1 MOL       0.0000
    722 C240       -31.0615    20.1294    32.8713 C         1 MOL       0.0000
    723 O153       -32.3416    15.0912    38.1240 O         1 MOL       0.0000
    724 O154       -28.9270    14.1579    36.4419 O         1 MOL       0.0000
    725 O155       -30.7694    17.0334    31.2451 O         1 MOL       0.0000
    726 O156       -29.0728    18.2576    30.8199 O         1 MOL       0.0000
    727 F37        -30.9556    16.2914    39.2827 F         1 MOL       0.0000
    728 F38        -33.2151    20.5063    35.9624 F         1 MOL       0.0000
    729 F39        -29.3191    17.1772    38.3063 F         1 MOL       0.0000
    730 F40        -31.8304    14.1636    40.4368 F         1 MOL       0.0000
    731 F41        -32.1093    21.0113    33.2163 F         1 MOL       0.0000
    732 F42        -30.6179    20.2516    31.1763 F         1 MOL       0.0000
    733 S13        -31.0279    15.6264    35.7753 S         1 MOL       0.0000
    734 S14        -30.0209    17.5911    31.9035 S         1 MOL       0.0000
    735 N38        -11.0883     7.1886    19.2076 N         1 MOL       0.0000
    736 N39        -13.0677     7.0675    19.5848 N         1 MOL       0.0000
    737 C241        -9.9390     7.7224    18.8643 C         1 MOL       0.0000
    738 C242       -12.2490     7.8466    19.1727 C         1 MOL       0.0000
    739 C243       -11.1613     5.9547    19.6635 C         1 MOL       0.0000
    740 C244        -8.7604     7.0587    17.6505 C         1 MOL       0.0000
    741 C245       -12.4036     5.8887    19.8971 C         1 MOL       0.0000
    742 C246       -14.3665     7.3773    19.4195 C         1 MOL       0.0000
    743 H214        -9.7616     7.7304    20.0404 H         1 MOL       0.0000
    744 H215       -10.2049     8.6952    18.4229 H         1 MOL       0.0000
    745 H216       -12.4680     8.8137    18.7644 H         1 MOL       0.0000
    746 H217        -7.9353     7.4059    17.6853 H         1 MOL       0.0000
    747 H218       -10.3436     5.2487    19.7564 H         1 MOL       0.0000
    748 H219       -15.0117     7.0395    20.5460 H         1 MOL       0.0000
    749 H220       -14.6396     8.3848    19.2037 H         1 MOL       0.0000
    750 H221        -8.5873     6.0556    17.9742 H         1 MOL       0.0000
    751 H222       -12.8437     5.0897    20.1918 H         1 MOL       0.0000
    752 H223        -8.8458     7.2145    16.4049 H         1 MOL       0.0000
    753 H224       -14.3679     6.9382    18.3786 H         1 MOL       0.0000
    754 N40        -11.5151     7.8451    13.4656 N         1 MOL       0.0000
    755 C247       -13.4888     5.1750    16.0232 C         1 MOL       0.0000
    756 C248       -12.5269     9.8818    10.5763 C         1 MOL       0.0000
    757 O157       -12.8304    10.0284    14.1656 O         1 MOL       0.0000
    758 O158       -10.2678     5.0502    16.3559 O         1 MOL       0.0000
    759 O159       -10.5951     9.7235    12.1596 O         1 MOL       0.0000
    760 O160        -8.8300     6.2547    14.2412 O         1 MOL       0.0000
    761 F43        -14.5867     4.6838    16.7042 F         1 MOL       0.0000
    762 F44        -13.7132     9.7802    10.6351 F         1 MOL       0.0000
    763 F45        -12.3748     5.2800    12.3008 F         1 MOL       0.0000
    764 F46        -12.5648     4.2488    15.2997 F         1 MOL       0.0000
    765 F47        -11.4690    11.5288    10.3954 F         1 MOL       0.0000
    766 F48        -10.4433     7.6191     9.8271 F         1 MOL       0.0000
    767 S15        -11.8290     9.3896    12.8649 S         1 MOL       0.0000
    768 S16        -10.0209     5.8085    14.7635 S         1 MOL       0.0000
    769 Ti33         8.7475    -5.2598    11.0113 Ti        1 MOL       0.0000
    770 Ti34        17.4823     3.1379     8.4845 Ti        1 MOL       0.0000
    771 Ti35        14.4235    -6.7507     9.2727 Ti        1 MOL       0.0000
    772 Ti36        12.0367     3.3426     8.8220 Ti        1 MOL       0.0000
    773 Ti37        11.0727     5.5025     7.2587 Ti        1 MOL       0.0000
    774 Ti38        15.1024    -7.7762    12.0369 Ti        1 MOL       0.0000
    775 Ti39        11.0840    -5.4292     8.7302 Ti        1 MOL       0.0000
    776 Ti40        15.3375     2.1465     9.4908 Ti        1 MOL       0.0000
    777 H225         6.8330    -2.1836    12.9828 H         1 MOL       0.0000
    778 H226        20.2212     0.1486     7.2621 H         1 MOL       0.0000
    779 H227         6.7513    -6.0647     8.2813 H         1 MOL       0.0000
    780 H228        18.4238     4.9042    11.3667 H         1 MOL       0.0000
    781 H229        18.2818   -10.4628    10.1278 H         1 MOL       0.0000
    782 H230         8.6584     4.4322     5.2663 H         1 MOL       0.0000
    783 H231        13.0467     5.3456     4.8189 H         1 MOL       0.0000
    784 H232        17.0163     3.6587     5.7322 H         1 MOL       0.0000
    785 H233        17.8223    -5.2552     6.4543 H         1 MOL       0.0000
    786 H234         8.5108     2.5721    12.4933 H         1 MOL       0.0000
    787 H235         6.5355    -3.1746     8.0350 H         1 MOL       0.0000
    788 H236        19.6896     0.6583    11.1209 H         1 MOL       0.0000
    789 H237        10.1034    -2.2019     5.1300 H         1 MOL       0.0000
    790 H238         7.1106     5.2496     8.9761 H         1 MOL       0.0000
    791 H239         9.1716     7.3975     9.8536 H         1 MOL       0.0000
    792 H240        20.8866    -2.0183     7.3791 H         1 MOL       0.0000
    793 H241        14.0766     4.0597     8.3674 H         1 MOL       0.0000
    794 H242        12.1500    -6.1912    10.9472 H         1 MOL       0.0000
    795 H243        17.2957    -4.9926    13.5001 H         1 MOL       0.0000
    796 H244        16.3384    -5.9105    13.2756 H         1 MOL       0.0000
    797 H245        15.4262    -1.0364    14.8964 H         1 MOL       0.0000
    798 H246        15.4251     0.0357    13.1749 H         1 MOL       0.0000
    799 H247        19.9966    -8.6350    10.5995 H         1 MOL       0.0000
    800 H248        18.3409    -8.2056    10.9676 H         1 MOL       0.0000
    801 C249        17.2673     1.1132    11.2630 C         1 MOL       0.0000
    802 C250         8.9926    -3.6444     7.8199 C         1 MOL       0.0000
    803 C251        17.0439    -6.7153     9.1303 C         1 MOL       0.0000
    804 C252         9.2527     4.0760     9.7977 C         1 MOL       0.0000
    805 C253        17.8529     0.2298    12.4020 C         1 MOL       0.0000
    806 C254         8.3647    -2.7594     6.6914 C         1 MOL       0.0000
    807 C255        18.3656    -6.5579     8.3464 C         1 MOL       0.0000
    808 C256         7.9256     3.9202    10.6754 C         1 MOL       0.0000
    809 C257        17.1382    -0.4979    13.7202 C         1 MOL       0.0000
    810 C258         9.0786    -2.0788     5.3531 C         1 MOL       0.0000
    811 C259        19.3922    -7.2398     8.9825 C         1 MOL       0.0000
    812 C260         6.9112     4.6111    10.0710 C         1 MOL       0.0000
    813 C261         7.7043     3.0940    12.0702 C         1 MOL       0.0000
    814 C262        18.6248    -5.7441     6.9067 C         1 MOL       0.0000
    815 C263        19.1811     0.0928    12.1432 C         1 MOL       0.0000
    816 C264         7.0541    -2.6359     6.9867 C         1 MOL       0.0000
    817 C265        20.9358     1.3570     5.1506 C         1 MOL       0.0000
    818 C266         9.6795     9.3931     7.8273 C         1 MOL       0.0000
    819 C267        19.1702     5.9962     9.1316 C         1 MOL       0.0000
    820 C268         9.5382     5.6474     3.2307 C         1 MOL       0.0000
    821 C269        13.2106     0.6270     9.9889 C         1 MOL       0.0000
    822 C270        13.6392    -6.2224     6.0040 C         1 MOL       0.0000
    823 C271        19.9889     2.4374     5.7844 C         1 MOL       0.0000
    824 C272        10.4864     8.3354     7.0298 C         1 MOL       0.0000
    825 C273        18.6735     5.3652     8.2252 C         1 MOL       0.0000
    826 C274        10.1980     6.1010     4.1595 C         1 MOL       0.0000
    827 C275        20.9161     0.2027     6.0651 C         1 MOL       0.0000
    828 C276         6.1597    -2.2352    14.1940 C         1 MOL       0.0000
    829 C277        18.9888     5.6120    10.8271 C         1 MOL       0.0000
    830 C278         6.1611    -6.7533     8.8267 C         1 MOL       0.0000
    831 C279        16.3647    -5.8812    15.6316 C         1 MOL       0.0000
    832 C280         8.7826     4.7459     3.9798 C         1 MOL       0.0000
    833 C281        18.2804   -11.3604    10.8339 C         1 MOL       0.0000
    834 C282         8.7973     9.2937     9.4360 C         1 MOL       0.0000
    835 N41          8.7429     8.1890    10.4018 N         1 MOL       0.0000
    836 N42         16.5430    -5.4172    14.0149 N         1 MOL       0.0000
    837 N43         15.8558    -0.4241    14.0346 N         1 MOL       0.0000
    838 N44         19.2269    -8.0279    10.3842 N         1 MOL       0.0000
    839 O161        16.1261     1.0856    11.2445 O         1 MOL       0.0000
    840 O162        10.2048    -4.0517     7.3313 O         1 MOL       0.0000
    841 O163        16.7779    -7.2355    10.6018 O         1 MOL       0.0000
    842 O164         9.3868     5.0329     8.7808 O         1 MOL       0.0000
    843 O165        10.1863     3.2427    10.0905 O         1 MOL       0.0000
    844 O166        16.2068    -6.3553     8.3262 O         1 MOL       0.0000
    845 O167        17.9256     1.8707    10.2980 O         1 MOL       0.0000
    846 O168         8.2722    -3.9687     9.2144 O         1 MOL       0.0000
    847 O169        16.6935     1.9159     7.8430 O         1 MOL       0.0000
    848 O170        10.2464    -4.6050    10.5259 O         1 MOL       0.0000
    849 O171        15.7814     3.4832     9.8988 O         1 MOL       0.0000
    850 O172         9.9521    -6.3515     9.2868 O         1 MOL       0.0000
    851 O173        14.8358    -8.2711    10.0769 O         1 MOL       0.0000
    852 O174        11.7105     4.9601     9.1191 O         1 MOL       0.0000
    853 O175        14.2791    -6.2302    11.2145 O         1 MOL       0.0000
    854 O176        11.8301     3.7372     6.8779 O         1 MOL       0.0000
    855 O177        14.2428     0.8212    10.1534 O         1 MOL       0.0000
    856 O178        12.4569    -5.7292     6.5698 O         1 MOL       0.0000
    857 O179        16.4225    -9.3388    12.1323 O         1 MOL       0.0000
    858 O180        10.4546     7.2155     7.7330 O         1 MOL       0.0000
    859 O181        15.2872    -7.1695    13.9150 O         1 MOL       0.0000
    860 O182        10.1102     5.6286     5.6457 O         1 MOL       0.0000
    861 O183        14.4078    -6.5565     6.8929 O         1 MOL       0.0000
    862 O184        12.3559     1.4939     9.5855 O         1 MOL       0.0000
    863 O185        18.0858     4.4643     8.9538 O         1 MOL       0.0000
    864 O186         7.3103    -5.8765    10.7098 O         1 MOL       0.0000
    865 O187        19.1965     2.3079     7.2154 O         1 MOL       0.0000
    866 O188         7.6999    -4.3371    12.8077 O         1 MOL       0.0000
    867 O189        13.9077     3.2233     8.6343 O         1 MOL       0.0000
    868 O190        12.4899    -6.2720     9.7780 O         1 MOL       0.0000
    869 O191        17.2983     4.1633     6.3167 O         1 MOL       0.0000
    870 O192        12.5290     6.0471     5.4212 O         1 MOL       0.0000
    871 H249        14.4814    -3.6062    11.2830 H         1 MOL       0.0000
    872 H250        16.0957    -6.7994     4.1802 H         1 MOL       0.0000
    873 H251        10.7883     4.3400    13.1060 H         1 MOL       0.0000
    874 H252        14.8526    -1.4306    10.6812 H         1 MOL       0.0000
    875 H253        10.6706    -2.2950    10.8405 H         1 MOL       0.0000
    876 H254        12.2109    -6.3701     4.0997 H         1 MOL       0.0000
    877 H255        12.4229    -4.0222    11.2741 H         1 MOL       0.0000
    878 H256        11.0399    -0.1179    10.2545 H         1 MOL       0.0000
    879 H257        13.1169     3.7769    11.7632 H         1 MOL       0.0000
    880 H258         3.9370     2.6407     5.3576 H         1 MOL       0.0000
    881 C283        12.9763    -0.6521    10.3972 C         1 MOL       0.0000
    882 C284        12.5647    -3.0733    11.0679 C         1 MOL       0.0000
    883 C285        12.7794     4.1092    12.9715 C         1 MOL       0.0000
    884 C286        14.1096    -6.5560     4.3022 C         1 MOL       0.0000
    885 C287        11.7879    -0.8907    10.4691 C         1 MOL       0.0000
    886 C288        13.7357    -2.8387    11.0538 C         1 MOL       0.0000
    887 C289        11.4669     4.4364    13.7184 C         1 MOL       0.0000
    888 C290        15.4275    -6.8811     3.5453 C         1 MOL       0.0000
    889 C291        13.6638     4.2243    13.7450 C         1 MOL       0.0000
    890 C292        13.2259    -6.6361     3.4970 C         1 MOL       0.0000
    891 C293        13.9408    -1.6291    10.7262 C         1 MOL       0.0000
    892 C294        11.5843    -2.1004    10.7971 C         1 MOL       0.0000
    893 N45         -3.8055     4.5890    20.5805 N         1 MOL       0.0000
    894 N46         -1.8171     4.6411    19.2461 N         1 MOL       0.0000
    895 C295        -3.7920     5.6166    19.4472 C         1 MOL       0.0000
    896 C296        -2.5571     5.6506    18.5914 C         1 MOL       0.0000
    897 C297        -0.0353     5.5246    19.4112 C         1 MOL       0.0000
    898 C298        -4.9053     4.3698    21.9788 C         1 MOL       0.0000
    899 C299        -2.5876     4.0146    20.4606 C         1 MOL       0.0000
    900 C300        -0.4210     4.4578    18.9089 C         1 MOL       0.0000
    901 H259        -4.6384     6.3073    19.4414 H         1 MOL       0.0000
    902 H260        -2.1513     6.3122    17.6238 H         1 MOL       0.0000
    903 H261        -0.3385     6.3996    18.7228 H         1 MOL       0.0000
    904 H262        -5.5015     5.2697    22.2855 H         1 MOL       0.0000
    905 H263        -0.4589     5.6436    20.7219 H         1 MOL       0.0000
    906 H264        -5.4031     3.7636    21.6703 H         1 MOL       0.0000
    907 H265         1.0102     5.3597    19.1216 H         1 MOL       0.0000
    908 H266         0.0087     4.3498    17.6027 H         1 MOL       0.0000
    909 H267        -4.5474     3.9493    23.0136 H         1 MOL       0.0000
    910 H268        -2.2500     3.2404    21.2298 H         1 MOL       0.0000
    911 H269        -0.1320     3.5789    19.5892 H         1 MOL       0.0000
    912 N47         -4.4046     8.4147    21.6619 N         1 MOL       0.0000
    913 C301        -2.7239     8.2298    24.9991 C         1 MOL       0.0000
    914 C302        -3.9095    12.0254    19.9233 C         1 MOL       0.0000
    915 O193        -5.1896     6.9872    25.1760 O         1 MOL       0.0000
    916 O194        -1.7750     6.0539    23.4939 O         1 MOL       0.0000
    917 O195        -3.6174     8.9294    18.2971 O         1 MOL       0.0000
    918 O196        -1.9208    10.1536    17.8719 O         1 MOL       0.0000
    919 F49         -3.8036     8.1874    26.3347 F         1 MOL       0.0000
    920 F50         -6.0631    12.4023    23.0144 F         1 MOL       0.0000
    921 F51         -2.1671     9.0732    25.3583 F         1 MOL       0.0000
    922 F52         -4.6784     6.0596    27.4888 F         1 MOL       0.0000
    923 F53         -4.9573    12.9073    20.2683 F         1 MOL       0.0000
    924 F54         -3.4659    12.1476    18.2283 F         1 MOL       0.0000
    925 S17         -3.8759     7.5224    22.8273 S         1 MOL       0.0000
    926 S18         -2.8689     9.4871    18.9555 S         1 MOL       0.0000
    927 N48         16.0637    -0.9154     6.2596 N         1 MOL       0.0000
    928 N49         14.0843    -1.0365     6.6368 N         1 MOL       0.0000
    929 C303        17.2130    -0.3816     5.9163 C         1 MOL       0.0000
    930 C304        14.9030    -0.2574     6.2247 C         1 MOL       0.0000
    931 C305        15.9907    -2.1493     6.7155 C         1 MOL       0.0000
    932 C306        18.3916    -1.0453     4.7025 C         1 MOL       0.0000
    933 C307        14.7484    -2.2153     6.9491 C         1 MOL       0.0000
    934 C308        12.7855    -0.7267     6.4715 C         1 MOL       0.0000
    935 H270        17.3904    -0.3736     7.0924 H         1 MOL       0.0000
    936 H271        16.9471     0.5912     5.4749 H         1 MOL       0.0000
    937 H272        14.6840     0.7097     5.8164 H         1 MOL       0.0000
    938 H273        19.2167    -0.6981     4.7373 H         1 MOL       0.0000
    939 H274        16.8084    -2.8553     6.8084 H         1 MOL       0.0000
    940 H275        12.1403    -1.0645     7.5980 H         1 MOL       0.0000
    941 H276        12.5124     0.2808     6.2557 H         1 MOL       0.0000
    942 H277        18.5647    -2.0484     5.0262 H         1 MOL       0.0000
    943 H278        14.3083    -3.0143     7.2438 H         1 MOL       0.0000
    944 H279        18.3062    -0.8895     3.4569 H         1 MOL       0.0000
    945 H280        12.7841    -1.1658     5.4306 H         1 MOL       0.0000
    946 N50         15.6369    -0.2589     0.5176 N         1 MOL       0.0000
    947 C309        13.6632    -2.9290     3.0752 C         1 MOL       0.0000
    948 C310        14.6251     1.7778    -2.3717 C         1 MOL       0.0000
    949 O197        14.3216     1.9244     1.2176 O         1 MOL       0.0000
    950 O198        16.8842    -3.0538     3.4079 O         1 MOL       0.0000
    951 O199        16.5569     1.6195    -0.7884 O         1 MOL       0.0000
    952 O200        18.3220    -1.8493     1.2932 O         1 MOL       0.0000
    953 F55         12.5653    -3.4202     3.7562 F         1 MOL       0.0000
    954 F56         13.4388     1.6762    -2.3129 F         1 MOL       0.0000
    955 F57         14.7772    -2.8240    -0.6472 F         1 MOL       0.0000
    956 F58         14.5872    -3.8552     2.3517 F         1 MOL       0.0000
    957 F59         15.6830     3.4248    -2.5526 F         1 MOL       0.0000
    958 F60         16.7087    -0.4849    -3.1209 F         1 MOL       0.0000
    959 S19         15.3230     1.2856    -0.0831 S         1 MOL       0.0000
    960 S20         17.1311    -2.2955     1.8155 S         1 MOL       0.0000
    961 Ti41         4.1125   -12.3258    24.1063 Ti        1 MOL       0.0000
    962 Ti42        12.8473    -3.9281    21.5795 Ti        1 MOL       0.0000
    963 Ti43         9.7885   -13.8167    22.3677 Ti        1 MOL       0.0000
    964 Ti44         7.4017    -3.7234    21.9170 Ti        1 MOL       0.0000
    965 Ti45         6.4377    -1.5635    20.3537 Ti        1 MOL       0.0000
    966 Ti46        10.4674   -14.8422    25.1319 Ti        1 MOL       0.0000
    967 Ti47         6.4490   -12.4952    21.8252 Ti        1 MOL       0.0000
    968 Ti48        10.7025    -4.9195    22.5858 Ti        1 MOL       0.0000
    969 H281         2.1980    -9.2496    26.0778 H         1 MOL       0.0000
    970 H282        15.5862    -6.9174    20.3571 H         1 MOL       0.0000
    971 H283         2.1163   -13.1307    21.3763 H         1 MOL       0.0000
    972 H284        13.7888    -2.1618    24.4617 H         1 MOL       0.0000
    973 H285        13.6468   -17.5288    23.2228 H         1 MOL       0.0000
    974 H286         4.0234    -2.6338    18.3613 H         1 MOL       0.0000
    975 H287         8.4117    -1.7204    17.9139 H         1 MOL       0.0000
    976 H288        12.3813    -3.4073    18.8272 H         1 MOL       0.0000
    977 H289        13.1873   -12.3212    19.5493 H         1 MOL       0.0000
    978 H290         3.8758    -4.4939    25.5883 H         1 MOL       0.0000
    979 H291         1.9005   -10.2406    21.1300 H         1 MOL       0.0000
    980 H292        15.0546    -6.4077    24.2159 H         1 MOL       0.0000
    981 H293         5.4684    -9.2679    18.2250 H         1 MOL       0.0000
    982 H294         2.4756    -1.8164    22.0711 H         1 MOL       0.0000
    983 H295         4.5366     0.3315    22.9486 H         1 MOL       0.0000
    984 H296        16.2516    -9.0843    20.4741 H         1 MOL       0.0000
    985 H297         9.4416    -3.0063    21.4624 H         1 MOL       0.0000
    986 H298         7.5150   -13.2572    24.0422 H         1 MOL       0.0000
    987 H299        12.6607   -12.0586    26.5951 H         1 MOL       0.0000
    988 H300        11.7034   -12.9765    26.3706 H         1 MOL       0.0000
    989 H301        10.7912    -8.1024    27.9914 H         1 MOL       0.0000
    990 H302        10.7901    -7.0303    26.2699 H         1 MOL       0.0000
    991 H303        15.3616   -15.7010    23.6945 H         1 MOL       0.0000
    992 H304        13.7059   -15.2716    24.0626 H         1 MOL       0.0000
    993 C311        12.6323    -5.9528    24.3580 C         1 MOL       0.0000
    994 C312         4.3576   -10.7104    20.9149 C         1 MOL       0.0000
    995 C313        12.4089   -13.7813    22.2253 C         1 MOL       0.0000
    996 C314         4.6177    -2.9900    22.8927 C         1 MOL       0.0000
    997 C315        13.2179    -6.8362    25.4970 C         1 MOL       0.0000
    998 C316         3.7297    -9.8254    19.7864 C         1 MOL       0.0000
    999 C317        13.7306   -13.6239    21.4414 C         1 MOL       0.0000
   1000 C318         3.2906    -3.1458    23.7704 C         1 MOL       0.0000
   1001 C319        12.5032    -7.5639    26.8152 C         1 MOL       0.0000
   1002 C320         4.4436    -9.1448    18.4481 C         1 MOL       0.0000
   1003 C321        14.7572   -14.3058    22.0775 C         1 MOL       0.0000
   1004 C322         2.2762    -2.4549    23.1660 C         1 MOL       0.0000
   1005 C323         3.0693    -3.9720    25.1652 C         1 MOL       0.0000
   1006 C324        13.9898   -12.8101    20.0017 C         1 MOL       0.0000
   1007 C325        14.5461    -6.9732    25.2382 C         1 MOL       0.0000
   1008 C326         2.4191    -9.7019    20.0817 C         1 MOL       0.0000
   1009 C327        16.3008    -5.7090    18.2456 C         1 MOL       0.0000
   1010 C328         5.0445     2.3271    20.9223 C         1 MOL       0.0000
   1011 C329        14.5352    -1.0698    22.2266 C         1 MOL       0.0000
   1012 C330         4.9032    -1.4186    16.3257 C         1 MOL       0.0000
   1013 C331         8.5756    -6.4390    23.0839 C         1 MOL       0.0000
   1014 C332         9.0042   -13.2884    19.0990 C         1 MOL       0.0000
   1015 C333        15.3539    -4.6286    18.8794 C         1 MOL       0.0000
   1016 C334         5.8514     1.2694    20.1248 C         1 MOL       0.0000
   1017 C335        14.0385    -1.7008    21.3202 C         1 MOL       0.0000
   1018 C336         5.5630    -0.9650    17.2545 C         1 MOL       0.0000
   1019 C337        16.2811    -6.8633    19.1601 C         1 MOL       0.0000
   1020 C338         1.5247    -9.3012    27.2890 C         1 MOL       0.0000
   1021 C339        14.3538    -1.4540    23.9221 C         1 MOL       0.0000
   1022 C340         1.5261   -13.8193    21.9217 C         1 MOL       0.0000
   1023 C341        11.7297   -12.9472    28.7266 C         1 MOL       0.0000
   1024 C342         4.1476    -2.3201    17.0748 C         1 MOL       0.0000
   1025 C343        13.6454   -18.4264    23.9289 C         1 MOL       0.0000
   1026 C344         4.1623     2.2277    22.5310 C         1 MOL       0.0000
   1027 N51          4.1079     1.1230    23.4968 N         1 MOL       0.0000
   1028 N52         11.9080   -12.4832    27.1099 N         1 MOL       0.0000
   1029 N53         11.2208    -7.4901    27.1296 N         1 MOL       0.0000
   1030 N54         14.5919   -15.0939    23.4792 N         1 MOL       0.0000
   1031 O201        11.4911    -5.9804    24.3395 O         1 MOL       0.0000
   1032 O202         5.5698   -11.1177    20.4263 O         1 MOL       0.0000
   1033 O203        12.1429   -14.3015    23.6968 O         1 MOL       0.0000
   1034 O204         4.7518    -2.0331    21.8758 O         1 MOL       0.0000
   1035 O205         5.5513    -3.8233    23.1855 O         1 MOL       0.0000
   1036 O206        11.5718   -13.4213    21.4212 O         1 MOL       0.0000
   1037 O207        13.2906    -5.1953    23.3930 O         1 MOL       0.0000
   1038 O208         3.6372   -11.0347    22.3094 O         1 MOL       0.0000
   1039 O209        12.0585    -5.1501    20.9380 O         1 MOL       0.0000
   1040 O210         5.6114   -11.6710    23.6209 O         1 MOL       0.0000
   1041 O211        11.1464    -3.5828    22.9938 O         1 MOL       0.0000
   1042 O212         5.3171   -13.4175    22.3818 O         1 MOL       0.0000
   1043 O213        10.2008   -15.3371    23.1719 O         1 MOL       0.0000
   1044 O214         7.0755    -2.1059    22.2141 O         1 MOL       0.0000
   1045 O215         9.6441   -13.2962    24.3095 O         1 MOL       0.0000
   1046 O216         7.1951    -3.3288    19.9729 O         1 MOL       0.0000
   1047 O217         9.6078    -6.2448    23.2484 O         1 MOL       0.0000
   1048 O218         7.8219   -12.7952    19.6648 O         1 MOL       0.0000
   1049 O219        11.7875   -16.4048    25.2273 O         1 MOL       0.0000
   1050 O220         5.8196     0.1495    20.8280 O         1 MOL       0.0000
   1051 O221        10.6522   -14.2355    27.0100 O         1 MOL       0.0000
   1052 O222         5.4752    -1.4374    18.7407 O         1 MOL       0.0000
   1053 O223         9.7728   -13.6225    19.9879 O         1 MOL       0.0000
   1054 O224         7.7209    -5.5721    22.6805 O         1 MOL       0.0000
   1055 O225        13.4508    -2.6017    22.0488 O         1 MOL       0.0000
   1056 O226         2.6753   -12.9425    23.8048 O         1 MOL       0.0000
   1057 O227        14.5615    -4.7581    20.3104 O         1 MOL       0.0000
   1058 O228         3.0649   -11.4031    25.9027 O         1 MOL       0.0000
   1059 O229         9.2727    -3.8427    21.7293 O         1 MOL       0.0000
   1060 O230         7.8549   -13.3380    22.8730 O         1 MOL       0.0000
   1061 O231        12.6633    -2.9027    19.4117 O         1 MOL       0.0000
   1062 O232         7.8940    -1.0189    18.5162 O         1 MOL       0.0000
   1063 H305         9.8464   -10.6722    24.3780 H         1 MOL       0.0000
   1064 H306        11.4607   -13.8654    17.2752 H         1 MOL       0.0000
   1065 H307         6.1533    -2.7260    26.2010 H         1 MOL       0.0000
   1066 H308        10.2176    -8.4966    23.7762 H         1 MOL       0.0000
   1067 H309         6.0356    -9.3610    23.9355 H         1 MOL       0.0000
   1068 H310         7.5759   -13.4361    17.1947 H         1 MOL       0.0000
   1069 H311         7.7879   -11.0882    24.3691 H         1 MOL       0.0000
   1070 H312         6.4049    -7.1839    23.3495 H         1 MOL       0.0000
   1071 H313         8.4819    -3.2891    24.8582 H         1 MOL       0.0000
   1072 H314        -0.6980    -4.4253    18.4526 H         1 MOL       0.0000
   1073 C345         8.3413    -7.7181    23.4922 C         1 MOL       0.0000
   1074 C346         7.9297   -10.1393    24.1629 C         1 MOL       0.0000
   1075 C347         8.1444    -2.9568    26.0665 C         1 MOL       0.0000
   1076 C348         9.4746   -13.6220    17.3972 C         1 MOL       0.0000
   1077 C349         7.1529    -7.9567    23.5641 C         1 MOL       0.0000
   1078 C350         9.1007    -9.9047    24.1488 C         1 MOL       0.0000
   1079 C351         6.8319    -2.6296    26.8134 C         1 MOL       0.0000
   1080 C352        10.7925   -13.9471    16.6403 C         1 MOL       0.0000
   1081 C353         9.0288    -2.8417    26.8400 C         1 MOL       0.0000
   1082 C354         8.5909   -13.7021    16.5920 C         1 MOL       0.0000
   1083 C355         9.3058    -8.6951    23.8212 C         1 MOL       0.0000
   1084 C356         6.9493    -9.1664    23.8921 C         1 MOL       0.0000
   1085 N55         -8.4405    -2.4770    33.6755 N         1 MOL       0.0000
   1086 N56         -6.4521    -2.4249    32.3411 N         1 MOL       0.0000
   1087 C357        -8.4270    -1.4494    32.5422 C         1 MOL       0.0000
   1088 C358        -7.1921    -1.4154    31.6864 C         1 MOL       0.0000
   1089 C359        -4.6703    -1.5414    32.5062 C         1 MOL       0.0000
   1090 C360        -9.5403    -2.6962    35.0738 C         1 MOL       0.0000
   1091 C361        -7.2226    -3.0514    33.5556 C         1 MOL       0.0000
   1092 C362        -5.0560    -2.6082    32.0039 C         1 MOL       0.0000
   1093 H315        -9.2734    -0.7587    32.5364 H         1 MOL       0.0000
   1094 H316        -6.7863    -0.7538    30.7188 H         1 MOL       0.0000
   1095 H317        -4.9735    -0.6664    31.8178 H         1 MOL       0.0000
   1096 H318       -10.1365    -1.7963    35.3805 H         1 MOL       0.0000
   1097 H319        -5.0939    -1.4224    33.8169 H         1 MOL       0.0000
   1098 H320       -10.0381    -3.3024    34.7653 H         1 MOL       0.0000
   1099 H321        -3.6248    -1.7063    32.2166 H         1 MOL       0.0000
   1100 H322        -4.6263    -2.7162    30.6977 H         1 MOL       0.0000
   1101 H323        -9.1824    -3.1167    36.1086 H         1 MOL       0.0000
   1102 H324        -6.8850    -3.8256    34.3248 H         1 MOL       0.0000
   1103 H325        -4.7670    -3.4871    32.6842 H         1 MOL       0.0000
   1104 N57         -9.0396     1.3487    34.7569 N         1 MOL       0.0000
   1105 C363        -7.3589     1.1638    38.0941 C         1 MOL       0.0000
   1106 C364        -8.5445     4.9594    33.0183 C         1 MOL       0.0000
   1107 O233        -9.8246    -0.0788    38.2710 O         1 MOL       0.0000
   1108 O234        -6.4100    -1.0121    36.5889 O         1 MOL       0.0000
   1109 O235        -8.2524     1.8634    31.3921 O         1 MOL       0.0000
   1110 O236        -6.5558     3.0876    30.9669 O         1 MOL       0.0000
   1111 F61         -8.4386     1.1214    39.4297 F         1 MOL       0.0000
   1112 F62        -10.6981     5.3363    36.1094 F         1 MOL       0.0000
   1113 F63         -6.8021     2.0072    38.4533 F         1 MOL       0.0000
   1114 F64         -9.3134    -1.0064    40.5838 F         1 MOL       0.0000
   1115 F65         -9.5923     5.8413    33.3633 F         1 MOL       0.0000
   1116 F66         -8.1009     5.0816    31.3233 F         1 MOL       0.0000
   1117 S21         -8.5109     0.4564    35.9223 S         1 MOL       0.0000
   1118 S22         -7.5039     2.4211    32.0505 S         1 MOL       0.0000
   1119 N58         11.4287    -7.9814    19.3546 N         1 MOL       0.0000
   1120 N59          9.4493    -8.1025    19.7318 N         1 MOL       0.0000
   1121 C365        12.5780    -7.4476    19.0113 C         1 MOL       0.0000
   1122 C366        10.2680    -7.3234    19.3197 C         1 MOL       0.0000
   1123 C367        11.3557    -9.2153    19.8105 C         1 MOL       0.0000
   1124 C368        13.7566    -8.1113    17.7975 C         1 MOL       0.0000
   1125 C369        10.1134    -9.2813    20.0441 C         1 MOL       0.0000
   1126 C370         8.1505    -7.7927    19.5665 C         1 MOL       0.0000
   1127 H326        12.7554    -7.4396    20.1874 H         1 MOL       0.0000
   1128 H327        12.3121    -6.4748    18.5699 H         1 MOL       0.0000
   1129 H328        10.0490    -6.3563    18.9114 H         1 MOL       0.0000
   1130 H329        14.5817    -7.7641    17.8323 H         1 MOL       0.0000
   1131 H330        12.1734    -9.9213    19.9034 H         1 MOL       0.0000
   1132 H331         7.5053    -8.1305    20.6930 H         1 MOL       0.0000
   1133 H332         7.8774    -6.7852    19.3507 H         1 MOL       0.0000
   1134 H333        13.9297    -9.1144    18.1212 H         1 MOL       0.0000
   1135 H334         9.6733   -10.0803    20.3388 H         1 MOL       0.0000
   1136 H335        13.6712    -7.9555    16.5519 H         1 MOL       0.0000
   1137 H336         8.1491    -8.2318    18.5256 H         1 MOL       0.0000
   1138 N60         11.0019    -7.3249    13.6126 N         1 MOL       0.0000
   1139 C371         9.0282    -9.9950    16.1702 C         1 MOL       0.0000
   1140 C372         9.9901    -5.2882    10.7233 C         1 MOL       0.0000
   1141 O237         9.6866    -5.1416    14.3126 O         1 MOL       0.0000
   1142 O238        12.2492   -10.1198    16.5029 O         1 MOL       0.0000
   1143 O239        11.9219    -5.4465    12.3066 O         1 MOL       0.0000
   1144 O240        13.6870    -8.9153    14.3882 O         1 MOL       0.0000
   1145 F67          7.9303   -10.4862    16.8512 F         1 MOL       0.0000
   1146 F68          8.8038    -5.3898    10.7821 F         1 MOL       0.0000
   1147 F69         10.1422    -9.8900    12.4478 F         1 MOL       0.0000
   1148 F70          9.9522   -10.9212    15.4467 F         1 MOL       0.0000
   1149 F71         11.0480    -3.6412    10.5424 F         1 MOL       0.0000
   1150 F72         12.0737    -7.5509     9.9741 F         1 MOL       0.0000
   1151 S23         10.6880    -5.7804    13.0119 S         1 MOL       0.0000
   1152 S24         12.4961    -9.3615    14.9105 S         1 MOL       0.0000
   1153 Ti49         2.2305     9.3532    10.9543 Ti        1 MOL       0.0000
   1154 Ti50        10.9653    17.7509     8.4275 Ti        1 MOL       0.0000
   1155 Ti51         7.9065     7.8623     9.2157 Ti        1 MOL       0.0000
   1156 Ti52         5.5197    17.9556     8.7650 Ti        1 MOL       0.0000
   1157 Ti53         4.5557    20.1155     7.2017 Ti        1 MOL       0.0000
   1158 Ti54         8.5854     6.8368    11.9799 Ti        1 MOL       0.0000
   1159 Ti55         4.5670     9.1838     8.6732 Ti        1 MOL       0.0000
   1160 Ti56         8.8205    16.7595     9.4338 Ti        1 MOL       0.0000
   1161 H337         0.3160    12.4294    12.9258 H         1 MOL       0.0000
   1162 H338        13.7042    14.7616     7.2051 H         1 MOL       0.0000
   1163 H339         0.2343     8.5483     8.2243 H         1 MOL       0.0000
   1164 H340        11.9068    19.5172    11.3097 H         1 MOL       0.0000
   1165 H341        11.7648     4.1502    10.0708 H         1 MOL       0.0000
   1166 H342         2.1414    19.0452     5.2093 H         1 MOL       0.0000
   1167 H343         6.5297    19.9586     4.7619 H         1 MOL       0.0000
   1168 H344        10.4993    18.2717     5.6752 H         1 MOL       0.0000
   1169 H345        11.3053     9.3578     6.3973 H         1 MOL       0.0000
   1170 H346         1.9938    17.1851    12.4363 H         1 MOL       0.0000
   1171 H347         0.0185    11.4384     7.9780 H         1 MOL       0.0000
   1172 H348        13.1726    15.2713    11.0639 H         1 MOL       0.0000
   1173 H349         3.5864    12.4111     5.0730 H         1 MOL       0.0000
   1174 H350         0.5936    19.8626     8.9191 H         1 MOL       0.0000
   1175 H351         2.6546    22.0105     9.7966 H         1 MOL       0.0000
   1176 H352        14.3696    12.5947     7.3221 H         1 MOL       0.0000
   1177 H353         7.5596    18.6727     8.3104 H         1 MOL       0.0000
   1178 H354         5.6330     8.4218    10.8902 H         1 MOL       0.0000
   1179 H355        10.7787     9.6204    13.4431 H         1 MOL       0.0000
   1180 H356         9.8214     8.7025    13.2186 H         1 MOL       0.0000
   1181 H357         8.9092    13.5766    14.8394 H         1 MOL       0.0000
   1182 H358         8.9081    14.6487    13.1179 H         1 MOL       0.0000
   1183 H359        13.4796     5.9780    10.5425 H         1 MOL       0.0000
   1184 H360        11.8239     6.4074    10.9106 H         1 MOL       0.0000
   1185 C373        10.7503    15.7262    11.2060 C         1 MOL       0.0000
   1186 C374         2.4756    10.9686     7.7629 C         1 MOL       0.0000
   1187 C375        10.5269     7.8977     9.0733 C         1 MOL       0.0000
   1188 C376         2.7357    18.6890     9.7407 C         1 MOL       0.0000
   1189 C377        11.3359    14.8428    12.3450 C         1 MOL       0.0000
   1190 C378         1.8477    11.8536     6.6344 C         1 MOL       0.0000
   1191 C379        11.8486     8.0551     8.2894 C         1 MOL       0.0000
   1192 C380         1.4086    18.5332    10.6184 C         1 MOL       0.0000
   1193 C381        10.6212    14.1151    13.6632 C         1 MOL       0.0000
   1194 C382         2.5616    12.5342     5.2961 C         1 MOL       0.0000
   1195 C383        12.8752     7.3732     8.9255 C         1 MOL       0.0000
   1196 C384         0.3942    19.2241    10.0140 C         1 MOL       0.0000
   1197 C385         1.1873    17.7070    12.0132 C         1 MOL       0.0000
   1198 C386        12.1078     8.8689     6.8497 C         1 MOL       0.0000
   1199 C387        12.6641    14.7058    12.0862 C         1 MOL       0.0000
   1200 C388         0.5371    11.9771     6.9297 C         1 MOL       0.0000
   1201 C389        14.4188    15.9700     5.0936 C         1 MOL       0.0000
   1202 C390         3.1625    24.0061     7.7703 C         1 MOL       0.0000
   1203 C391        12.6532    20.6092     9.0746 C         1 MOL       0.0000
   1204 C392         3.0212    20.2604     3.1737 C         1 MOL       0.0000
   1205 C393         6.6936    15.2400     9.9319 C         1 MOL       0.0000
   1206 C394         7.1222     8.3906     5.9470 C         1 MOL       0.0000
   1207 C395        13.4719    17.0504     5.7274 C         1 MOL       0.0000
   1208 C396         3.9694    22.9484     6.9728 C         1 MOL       0.0000
   1209 C397        12.1565    19.9782     8.1682 C         1 MOL       0.0000
   1210 C398         3.6810    20.7140     4.1025 C         1 MOL       0.0000
   1211 C399        14.3991    14.8157     6.0081 C         1 MOL       0.0000
   1212 C400        -0.3573    12.3778    14.1370 C         1 MOL       0.0000
   1213 C401        12.4718    20.2250    10.7701 C         1 MOL       0.0000
   1214 C402        -0.3559     7.8597     8.7697 C         1 MOL       0.0000
   1215 C403         9.8477     8.7318    15.5746 C         1 MOL       0.0000
   1216 C404         2.2656    19.3589     3.9228 C         1 MOL       0.0000
   1217 C405        11.7634     3.2526    10.7769 C         1 MOL       0.0000
   1218 C406         2.2803    23.9067     9.3790 C         1 MOL       0.0000
   1219 N61          2.2259    22.8020    10.3448 N         1 MOL       0.0000
   1220 N62         10.0260     9.1958    13.9579 N         1 MOL       0.0000
   1221 N63          9.3388    14.1889    13.9776 N         1 MOL       0.0000
   1222 N64         12.7099     6.5851    10.3272 N         1 MOL       0.0000
   1223 O241         9.6091    15.6986    11.1875 O         1 MOL       0.0000
   1224 O242         3.6878    10.5613     7.2743 O         1 MOL       0.0000
   1225 O243        10.2609     7.3775    10.5448 O         1 MOL       0.0000
   1226 O244         2.8698    19.6459     8.7238 O         1 MOL       0.0000
   1227 O245         3.6693    17.8557    10.0335 O         1 MOL       0.0000
   1228 O246         9.6898     8.2577     8.2692 O         1 MOL       0.0000
   1229 O247        11.4086    16.4837    10.2410 O         1 MOL       0.0000
   1230 O248         1.7552    10.6443     9.1574 O         1 MOL       0.0000
   1231 O249        10.1765    16.5289     7.7860 O         1 MOL       0.0000
   1232 O250         3.7294    10.0080    10.4689 O         1 MOL       0.0000
   1233 O251         9.2644    18.0962     9.8418 O         1 MOL       0.0000
   1234 O252         3.4351     8.2615     9.2298 O         1 MOL       0.0000
   1235 O253         8.3188     6.3419    10.0199 O         1 MOL       0.0000
   1236 O254         5.1935    19.5731     9.0621 O         1 MOL       0.0000
   1237 O255         7.7621     8.3828    11.1575 O         1 MOL       0.0000
   1238 O256         5.3131    18.3502     6.8209 O         1 MOL       0.0000
   1239 O257         7.7258    15.4342    10.0964 O         1 MOL       0.0000
   1240 O258         5.9399     8.8838     6.5128 O         1 MOL       0.0000
   1241 O259         9.9055     5.2742    12.0753 O         1 MOL       0.0000
   1242 O260         3.9376    21.8285     7.6760 O         1 MOL       0.0000
   1243 O261         8.7702     7.4435    13.8580 O         1 MOL       0.0000
   1244 O262         3.5932    20.2416     5.5887 O         1 MOL       0.0000
   1245 O263         7.8908     8.0565     6.8359 O         1 MOL       0.0000
   1246 O264         5.8389    16.1069     9.5285 O         1 MOL       0.0000
   1247 O265        11.5688    19.0773     8.8968 O         1 MOL       0.0000
   1248 O266         0.7933     8.7365    10.6528 O         1 MOL       0.0000
   1249 O267        12.6795    16.9209     7.1584 O         1 MOL       0.0000
   1250 O268         1.1829    10.2759    12.7507 O         1 MOL       0.0000
   1251 O269         7.3907    17.8363     8.5773 O         1 MOL       0.0000
   1252 O270         5.9729     8.3410     9.7210 O         1 MOL       0.0000
   1253 O271        10.7813    18.7763     6.2597 O         1 MOL       0.0000
   1254 O272         6.0120    20.6601     5.3642 O         1 MOL       0.0000
   1255 H361         7.9644    11.0068    11.2260 H         1 MOL       0.0000
   1256 H362         9.5787     7.8136     4.1232 H         1 MOL       0.0000
   1257 H363         4.2713    18.9530    13.0490 H         1 MOL       0.0000
   1258 H364         8.3356    13.1824    10.6242 H         1 MOL       0.0000
   1259 H365         4.1536    12.3180    10.7835 H         1 MOL       0.0000
   1260 H366         5.6939     8.2429     4.0427 H         1 MOL       0.0000
   1261 H367         5.9059    10.5908    11.2171 H         1 MOL       0.0000
   1262 H368         4.5229    14.4951    10.1975 H         1 MOL       0.0000
   1263 H369         6.5999    18.3899    11.7062 H         1 MOL       0.0000
   1264 H370        -2.5800    17.2537     5.3006 H         1 MOL       0.0000
   1265 C407         6.4593    13.9609    10.3402 C         1 MOL       0.0000
   1266 C408         6.0477    11.5397    11.0109 C         1 MOL       0.0000
   1267 C409         6.2624    18.7222    12.9145 C         1 MOL       0.0000
   1268 C410         7.5926     8.0570     4.2452 C         1 MOL       0.0000
   1269 C411         5.2709    13.7223    10.4121 C         1 MOL       0.0000
   1270 C412         7.2187    11.7743    10.9968 C         1 MOL       0.0000
   1271 C413         4.9499    19.0494    13.6614 C         1 MOL       0.0000
   1272 C414         8.9105     7.7319     3.4883 C         1 MOL       0.0000
   1273 C415         7.1468    18.8373    13.6880 C         1 MOL       0.0000
   1274 C416         6.7089     7.9769     3.4400 C         1 MOL       0.0000
   1275 C417         7.4238    12.9839    10.6692 C         1 MOL       0.0000
   1276 C418         5.0673    12.5126    10.7401 C         1 MOL       0.0000
   1277 N65        -10.3225    19.2020    20.5235 N         1 MOL       0.0000
   1278 N66         -8.3341    19.2541    19.1891 N         1 MOL       0.0000
   1279 C419       -10.3090    20.2296    19.3902 C         1 MOL       0.0000
   1280 C420        -9.0741    20.2636    18.5344 C         1 MOL       0.0000
   1281 C421        -6.5523    20.1376    19.3542 C         1 MOL       0.0000
   1282 C422       -11.4223    18.9828    21.9218 C         1 MOL       0.0000
   1283 C423        -9.1046    18.6276    20.4036 C         1 MOL       0.0000
   1284 C424        -6.9380    19.0708    18.8519 C         1 MOL       0.0000
   1285 H371       -11.1554    20.9203    19.3844 H         1 MOL       0.0000
   1286 H372        -8.6683    20.9252    17.5668 H         1 MOL       0.0000
   1287 H373        -6.8555    21.0126    18.6658 H         1 MOL       0.0000
   1288 H374       -12.0185    19.8827    22.2285 H         1 MOL       0.0000
   1289 H375        -6.9759    20.2566    20.6649 H         1 MOL       0.0000
   1290 H376       -11.9201    18.3766    21.6133 H         1 MOL       0.0000
   1291 H377        -5.5068    19.9727    19.0646 H         1 MOL       0.0000
   1292 H378        -6.5083    18.9628    17.5457 H         1 MOL       0.0000
   1293 H379       -11.0644    18.5623    22.9566 H         1 MOL       0.0000
   1294 H380        -8.7670    17.8534    21.1728 H         1 MOL       0.0000
   1295 H381        -6.6490    18.1919    19.5322 H         1 MOL       0.0000
   1296 N67        -10.9216    23.0277    21.6049 N         1 MOL       0.0000
   1297 C425        -9.2409    22.8428    24.9421 C         1 MOL       0.0000
   1298 C426       -10.4265    26.6384    19.8663 C         1 MOL       0.0000
   1299 O273       -11.7066    21.6002    25.1190 O         1 MOL       0.0000
   1300 O274        -8.2920    20.6669    23.4369 O         1 MOL       0.0000
   1301 O275       -10.1344    23.5424    18.2401 O         1 MOL       0.0000
   1302 O276        -8.4378    24.7666    17.8149 O         1 MOL       0.0000
   1303 F73        -10.3206    22.8004    26.2777 F         1 MOL       0.0000
   1304 F74        -12.5801    27.0153    22.9574 F         1 MOL       0.0000
   1305 F75         -8.6841    23.6862    25.3013 F         1 MOL       0.0000
   1306 F76        -11.1954    20.6726    27.4318 F         1 MOL       0.0000
   1307 F77        -11.4743    27.5203    20.2113 F         1 MOL       0.0000
   1308 F78         -9.9829    26.7606    18.1713 F         1 MOL       0.0000
   1309 S25        -10.3929    22.1354    22.7703 S         1 MOL       0.0000
   1310 S26         -9.3859    24.1001    18.8985 S         1 MOL       0.0000
   1311 N68          9.5467    13.6976     6.2026 N         1 MOL       0.0000
   1312 N69          7.5673    13.5765     6.5798 N         1 MOL       0.0000
   1313 C427        10.6960    14.2314     5.8593 C         1 MOL       0.0000
   1314 C428         8.3860    14.3556     6.1677 C         1 MOL       0.0000
   1315 C429         9.4737    12.4637     6.6585 C         1 MOL       0.0000
   1316 C430        11.8746    13.5677     4.6455 C         1 MOL       0.0000
   1317 C431         8.2314    12.3977     6.8921 C         1 MOL       0.0000
   1318 C432         6.2685    13.8863     6.4145 C         1 MOL       0.0000
   1319 H382        10.8734    14.2394     7.0354 H         1 MOL       0.0000
   1320 H383        10.4301    15.2042     5.4179 H         1 MOL       0.0000
   1321 H384         8.1670    15.3227     5.7594 H         1 MOL       0.0000
   1322 H385        12.6997    13.9149     4.6803 H         1 MOL       0.0000
   1323 H386        10.2914    11.7577     6.7514 H         1 MOL       0.0000
   1324 H387         5.6233    13.5485     7.5410 H         1 MOL       0.0000
   1325 H388         5.9954    14.8938     6.1987 H         1 MOL       0.0000
   1326 H389        12.0477    12.5646     4.9692 H         1 MOL       0.0000
   1327 H390         7.7913    11.5987     7.1868 H         1 MOL       0.0000
   1328 H391        11.7892    13.7235     3.3999 H         1 MOL       0.0000
   1329 H392         6.2671    13.4472     5.3736 H         1 MOL       0.0000
   1330 N70          9.1199    14.3541     0.4606 N         1 MOL       0.0000
   1331 C433         7.1462    11.6840     3.0182 C         1 MOL       0.0000
   1332 C434         8.1081    16.3908    -2.4287 C         1 MOL       0.0000
   1333 O277         7.8046    16.5374     1.1606 O         1 MOL       0.0000
   1334 O278        10.3672    11.5592     3.3509 O         1 MOL       0.0000
   1335 O279        10.0399    16.2325    -0.8454 O         1 MOL       0.0000
   1336 O280        11.8050    12.7637     1.2362 O         1 MOL       0.0000
   1337 F79          6.0483    11.1928     3.6992 F         1 MOL       0.0000
   1338 F80          6.9218    16.2892    -2.3699 F         1 MOL       0.0000
   1339 F81          8.2602    11.7890    -0.7042 F         1 MOL       0.0000
   1340 F82          8.0702    10.7578     2.2947 F         1 MOL       0.0000
   1341 F83          9.1660    18.0378    -2.6096 F         1 MOL       0.0000
   1342 F84         10.1917    14.1281    -3.1779 F         1 MOL       0.0000
   1343 S27          8.8060    15.8986    -0.1401 S         1 MOL       0.0000
   1344 S28         10.6141    12.3175     1.7585 S         1 MOL       0.0000
   1345 Ti57        -2.4045     2.2872    24.0493 Ti        1 MOL       0.0000
   1346 Ti58         6.3303    10.6849    21.5225 Ti        1 MOL       0.0000
   1347 Ti59         3.2715     0.7963    22.3107 Ti        1 MOL       0.0000
   1348 Ti60         0.8847    10.8896    21.8600 Ti        1 MOL       0.0000
   1349 Ti61        -0.0793    13.0495    20.2967 Ti        1 MOL       0.0000
   1350 Ti62         3.9504    -0.2292    25.0749 Ti        1 MOL       0.0000
   1351 Ti63        -0.0680     2.1178    21.7682 Ti        1 MOL       0.0000
   1352 Ti64         4.1855     9.6935    22.5288 Ti        1 MOL       0.0000
   1353 H393        -4.3190     5.3634    26.0208 H         1 MOL       0.0000
   1354 H394         9.0692     7.6956    20.3001 H         1 MOL       0.0000
   1355 H395        -4.4007     1.4823    21.3193 H         1 MOL       0.0000
   1356 H396         7.2718    12.4512    24.4047 H         1 MOL       0.0000
   1357 H397         7.1298    -2.9158    23.1658 H         1 MOL       0.0000
   1358 H398        -2.4936    11.9792    18.3043 H         1 MOL       0.0000
   1359 H399         1.8947    12.8926    17.8569 H         1 MOL       0.0000
   1360 H400         5.8643    11.2057    18.7702 H         1 MOL       0.0000
   1361 H401         6.6703     2.2918    19.4923 H         1 MOL       0.0000
   1362 H402        -2.6412    10.1191    25.5313 H         1 MOL       0.0000
   1363 H403        -4.6165     4.3724    21.0730 H         1 MOL       0.0000
   1364 H404         8.5376     8.2053    24.1589 H         1 MOL       0.0000
   1365 H405        -1.0486     5.3451    18.1680 H         1 MOL       0.0000
   1366 H406        -4.0414    12.7966    22.0141 H         1 MOL       0.0000
   1367 H407        -1.9804    14.9445    22.8916 H         1 MOL       0.0000
   1368 H408         9.7346     5.5287    20.4171 H         1 MOL       0.0000
   1369 H409         2.9246    11.6067    21.4054 H         1 MOL       0.0000
   1370 H410         0.9980     1.3558    23.9852 H         1 MOL       0.0000
   1371 H411         6.1437     2.5544    26.5381 H         1 MOL       0.0000
   1372 H412         5.1864     1.6365    26.3136 H         1 MOL       0.0000
   1373 H413         4.2742     6.5106    27.9344 H         1 MOL       0.0000
   1374 H414         4.2731     7.5827    26.2129 H         1 MOL       0.0000
   1375 H415         8.8446    -1.0880    23.6375 H         1 MOL       0.0000
   1376 H416         7.1889    -0.6586    24.0056 H         1 MOL       0.0000
   1377 C435         6.1153     8.6602    24.3010 C         1 MOL       0.0000
   1378 C436        -2.1594     3.9026    20.8579 C         1 MOL       0.0000
   1379 C437         5.8919     0.8317    22.1683 C         1 MOL       0.0000
   1380 C438        -1.8993    11.6230    22.8357 C         1 MOL       0.0000
   1381 C439         6.7009     7.7768    25.4400 C         1 MOL       0.0000
   1382 C440        -2.7873     4.7876    19.7294 C         1 MOL       0.0000
   1383 C441         7.2136     0.9891    21.3844 C         1 MOL       0.0000
   1384 C442        -3.2264    11.4672    23.7134 C         1 MOL       0.0000
   1385 C443         5.9862     7.0491    26.7582 C         1 MOL       0.0000
   1386 C444        -2.0734     5.4682    18.3911 C         1 MOL       0.0000
   1387 C445         8.2402     0.3072    22.0205 C         1 MOL       0.0000
   1388 C446        -4.2408    12.1581    23.1090 C         1 MOL       0.0000
   1389 C447        -3.4477    10.6410    25.1082 C         1 MOL       0.0000
   1390 C448         7.4728     1.8029    19.9447 C         1 MOL       0.0000
   1391 C449         8.0291     7.6398    25.1812 C         1 MOL       0.0000
   1392 C450        -4.0979     4.9111    20.0247 C         1 MOL       0.0000
   1393 C451         9.7838     8.9040    18.1886 C         1 MOL       0.0000
   1394 C452        -1.4725    16.9401    20.8653 C         1 MOL       0.0000
   1395 C453         8.0182    13.5432    22.1696 C         1 MOL       0.0000
   1396 C454        -1.6138    13.1944    16.2687 C         1 MOL       0.0000
   1397 C455         2.0586     8.1740    23.0269 C         1 MOL       0.0000
   1398 C456         2.4872     1.3246    19.0420 C         1 MOL       0.0000
   1399 C457         8.8369     9.9844    18.8224 C         1 MOL       0.0000
   1400 C458        -0.6656    15.8824    20.0678 C         1 MOL       0.0000
   1401 C459         7.5215    12.9122    21.2632 C         1 MOL       0.0000
   1402 C460        -0.9540    13.6480    17.1975 C         1 MOL       0.0000
   1403 C461         9.7641     7.7497    19.1031 C         1 MOL       0.0000
   1404 C462        -4.9923     5.3118    27.2320 C         1 MOL       0.0000
   1405 C463         7.8368    13.1590    23.8651 C         1 MOL       0.0000
   1406 C464        -4.9909     0.7937    21.8647 C         1 MOL       0.0000
   1407 C465         5.2127     1.6658    28.6696 C         1 MOL       0.0000
   1408 C466        -2.3694    12.2929    17.0178 C         1 MOL       0.0000
   1409 C467         7.1284    -3.8134    23.8719 C         1 MOL       0.0000
   1410 C468        -2.3547    16.8407    22.4740 C         1 MOL       0.0000
   1411 N71         -2.4091    15.7360    23.4398 N         1 MOL       0.0000
   1412 N72          5.3910     2.1298    27.0529 N         1 MOL       0.0000
   1413 N73          4.7038     7.1229    27.0726 N         1 MOL       0.0000
   1414 N74          8.0749    -0.4809    23.4222 N         1 MOL       0.0000
   1415 O281         4.9741     8.6326    24.2825 O         1 MOL       0.0000
   1416 O282        -0.9472     3.4953    20.3693 O         1 MOL       0.0000
   1417 O283         5.6259     0.3115    23.6398 O         1 MOL       0.0000
   1418 O284        -1.7652    12.5799    21.8188 O         1 MOL       0.0000
   1419 O285        -0.9657    10.7897    23.1285 O         1 MOL       0.0000
   1420 O286         5.0548     1.1917    21.3642 O         1 MOL       0.0000
   1421 O287         6.7736     9.4177    23.3360 O         1 MOL       0.0000
   1422 O288        -2.8798     3.5783    22.2524 O         1 MOL       0.0000
   1423 O289         5.5415     9.4629    20.8810 O         1 MOL       0.0000
   1424 O290        -0.9056     2.9420    23.5639 O         1 MOL       0.0000
   1425 O291         4.6294    11.0302    22.9368 O         1 MOL       0.0000
   1426 O292        -1.1999     1.1955    22.3248 O         1 MOL       0.0000
   1427 O293         3.6838    -0.7241    23.1149 O         1 MOL       0.0000
   1428 O294         0.5585    12.5071    22.1571 O         1 MOL       0.0000
   1429 O295         3.1271     1.3168    24.2525 O         1 MOL       0.0000
   1430 O296         0.6781    11.2842    19.9159 O         1 MOL       0.0000
   1431 O297         3.0908     8.3682    23.1914 O         1 MOL       0.0000
   1432 O298         1.3049     1.8178    19.6078 O         1 MOL       0.0000
   1433 O299         5.2705    -1.7918    25.1703 O         1 MOL       0.0000
   1434 O300        -0.6974    14.7625    20.7710 O         1 MOL       0.0000
   1435 O301         4.1352     0.3775    26.9530 O         1 MOL       0.0000
   1436 O302        -1.0418    13.1756    18.6837 O         1 MOL       0.0000
   1437 O303         3.2558     0.9905    19.9309 O         1 MOL       0.0000
   1438 O304         1.2039     9.0409    22.6235 O         1 MOL       0.0000
   1439 O305         6.9338    12.0113    21.9918 O         1 MOL       0.0000
   1440 O306        -3.8417     1.6705    23.7478 O         1 MOL       0.0000
   1441 O307         8.0445     9.8549    20.2534 O         1 MOL       0.0000
   1442 O308        -3.4521     3.2099    25.8457 O         1 MOL       0.0000
   1443 O309         2.7557    10.7703    21.6723 O         1 MOL       0.0000
   1444 O310         1.3379     1.2750    22.8160 O         1 MOL       0.0000
   1445 O311         6.1463    11.7103    19.3547 O         1 MOL       0.0000
   1446 O312         1.3770    13.5941    18.4592 O         1 MOL       0.0000
   1447 H417         3.3294     3.9408    24.3210 H         1 MOL       0.0000
   1448 H418         4.9437     0.7476    17.2182 H         1 MOL       0.0000
   1449 H419        -0.3637    11.8870    26.1440 H         1 MOL       0.0000
   1450 H420         3.7006     6.1164    23.7192 H         1 MOL       0.0000
   1451 H421        -0.4814     5.2520    23.8785 H         1 MOL       0.0000
   1452 H422         1.0589     1.1769    17.1377 H         1 MOL       0.0000
   1453 H423         1.2709     3.5248    24.3121 H         1 MOL       0.0000
   1454 H424        -0.1121     7.4291    23.2925 H         1 MOL       0.0000
   1455 H425         1.9649    11.3239    24.8012 H         1 MOL       0.0000
   1456 H426        -7.2150    10.1877    18.3956 H         1 MOL       0.0000
   1457 C469         1.8243     6.8949    23.4352 C         1 MOL       0.0000
   1458 C470         1.4127     4.4737    24.1059 C         1 MOL       0.0000
   1459 C471         1.6274    11.6562    26.0095 C         1 MOL       0.0000
   1460 C472         2.9576     0.9910    17.3402 C         1 MOL       0.0000
   1461 C473         0.6359     6.6563    23.5071 C         1 MOL       0.0000
   1462 C474         2.5837     4.7083    24.0918 C         1 MOL       0.0000
   1463 C475         0.3149    11.9834    26.7564 C         1 MOL       0.0000
   1464 C476         4.2755     0.6659    16.5833 C         1 MOL       0.0000
   1465 C477         2.5118    11.7713    26.7830 C         1 MOL       0.0000
   1466 C478         2.0739     0.9109    16.5350 C         1 MOL       0.0000
   1467 C479         2.7888     5.9179    23.7642 C         1 MOL       0.0000
   1468 C480         0.4323     5.4466    23.8351 C         1 MOL       0.0000
   1469 N75        -14.9575    12.1360    33.6185 N         1 MOL       0.0000
   1470 N76        -12.9691    12.1881    32.2841 N         1 MOL       0.0000
   1471 C481       -14.9440    13.1636    32.4852 C         1 MOL       0.0000
   1472 C482       -13.7091    13.1976    31.6294 C         1 MOL       0.0000
   1473 C483       -11.1873    13.0716    32.4492 C         1 MOL       0.0000
   1474 C484       -16.0573    11.9168    35.0168 C         1 MOL       0.0000
   1475 C485       -13.7396    11.5616    33.4986 C         1 MOL       0.0000
   1476 C486       -11.5730    12.0048    31.9469 C         1 MOL       0.0000
   1477 H427       -15.7904    13.8543    32.4794 H         1 MOL       0.0000
   1478 H428       -13.3033    13.8592    30.6618 H         1 MOL       0.0000
   1479 H429       -11.4905    13.9466    31.7608 H         1 MOL       0.0000
   1480 H430       -16.6535    12.8167    35.3235 H         1 MOL       0.0000
   1481 H431       -11.6109    13.1906    33.7599 H         1 MOL       0.0000
   1482 H432       -16.5551    11.3106    34.7083 H         1 MOL       0.0000
   1483 H433       -10.1418    12.9067    32.1596 H         1 MOL       0.0000
   1484 H434       -11.1433    11.8968    30.6407 H         1 MOL       0.0000
   1485 H435       -15.6994    11.4963    36.0516 H         1 MOL       0.0000
   1486 H436       -13.4020    10.7874    34.2678 H         1 MOL       0.0000
   1487 H437       -11.2840    11.1259    32.6272 H         1 MOL       0.0000
   1488 N77        -15.5566    15.9617    34.6999 N         1 MOL       0.0000
   1489 C487       -13.8759    15.7768    38.0371 C         1 MOL       0.0000
   1490 C488       -15.0615    19.5724    32.9613 C         1 MOL       0.0000
   1491 O313       -16.3416    14.5342    38.2140 O         1 MOL       0.0000
   1492 O314       -12.9270    13.6009    36.5319 O         1 MOL       0.0000
   1493 O315       -14.7694    16.4764    31.3351 O         1 MOL       0.0000
   1494 O316       -13.0728    17.7006    30.9099 O         1 MOL       0.0000
   1495 F85        -14.9556    15.7344    39.3727 F         1 MOL       0.0000
   1496 F86        -17.2151    19.9493    36.0524 F         1 MOL       0.0000
   1497 F87        -13.3191    16.6202    38.3963 F         1 MOL       0.0000
   1498 F88        -15.8304    13.6066    40.5268 F         1 MOL       0.0000
   1499 F89        -16.1093    20.4543    33.3063 F         1 MOL       0.0000
   1500 F90        -14.6179    19.6946    31.2663 F         1 MOL       0.0000
   1501 S29        -15.0279    15.0694    35.8653 S         1 MOL       0.0000
   1502 S30        -14.0209    17.0341    31.9935 S         1 MOL       0.0000
   1503 N78          4.9117     6.6316    19.2976 N         1 MOL       0.0000
   1504 N79          2.9323     6.5105    19.6748 N         1 MOL       0.0000
   1505 C489         6.0610     7.1654    18.9543 C         1 MOL       0.0000
   1506 C490         3.7510     7.2896    19.2627 C         1 MOL       0.0000
   1507 C491         4.8387     5.3977    19.7535 C         1 MOL       0.0000
   1508 C492         7.2396     6.5017    17.7405 C         1 MOL       0.0000
   1509 C493         3.5964     5.3317    19.9871 C         1 MOL       0.0000
   1510 C494         1.6335     6.8203    19.5095 C         1 MOL       0.0000
   1511 H438         6.2384     7.1734    20.1304 H         1 MOL       0.0000
   1512 H439         5.7951     8.1382    18.5129 H         1 MOL       0.0000
   1513 H440         3.5320     8.2567    18.8544 H         1 MOL       0.0000
   1514 H441         8.0647     6.8489    17.7753 H         1 MOL       0.0000
   1515 H442         5.6564     4.6917    19.8464 H         1 MOL       0.0000
   1516 H443         0.9883     6.4825    20.6360 H         1 MOL       0.0000
   1517 H444         1.3604     7.8278    19.2937 H         1 MOL       0.0000
   1518 H445         7.4127     5.4986    18.0642 H         1 MOL       0.0000
   1519 H446         3.1563     4.5327    20.2818 H         1 MOL       0.0000
   1520 H447         7.1542     6.6575    16.4949 H         1 MOL       0.0000
   1521 H448         1.6321     6.3812    18.4686 H         1 MOL       0.0000
   1522 N80          4.4849     7.2881    13.5556 N         1 MOL       0.0000
   1523 C495         2.5112     4.6180    16.1132 C         1 MOL       0.0000
   1524 C496         3.4731     9.3248    10.6663 C         1 MOL       0.0000
   1525 O317         3.1696     9.4714    14.2556 O         1 MOL       0.0000
   1526 O318         5.7322     4.4932    16.4459 O         1 MOL       0.0000
   1527 O319         5.4049     9.1665    12.2496 O         1 MOL       0.0000
   1528 O320         7.1700     5.6977    14.3312 O         1 MOL       0.0000
   1529 F91          1.4133     4.1268    16.7942 F         1 MOL       0.0000
   1530 F92          2.2868     9.2232    10.7251 F         1 MOL       0.0000
   1531 F93          3.6252     4.7230    12.3908 F         1 MOL       0.0000
   1532 F94          3.4352     3.6918    15.3897 F         1 MOL       0.0000
   1533 F95          4.5310    10.9718    10.4854 F         1 MOL       0.0000
   1534 F96          5.5567     7.0621     9.9171 F         1 MOL       0.0000
   1535 S31          4.1710     8.8326    12.9549 S         1 MOL       0.0000
   1536 S32          5.9791     5.2515    14.8535 S         1 MOL       0.0000
@<TRIPOS>BOND
     1     1     7 1
     2     1    78 1
     3     1    80 1
     4     1    82 1
     5     1    96 1
     6     1    98 1
     7     1   372 1
     8     1   383 1
     9     2     8 1
    10     2    57 1
    11     2    77 1
    12     2    79 1
    13     2    81 1
    14     2    95 1
    15     2    97 1
    16     2   101 1
    17     3     6 1
    18     3     7 1
    19     3    35 1
    20     3    76 1
    21     3    83 1
    22     3    85 1
    23     3    93 1
    24     3   100 1
    25     3   382 1
    26     4     5 1
    27     4     8 1
    28     4    25 1
    29     4    75 1
    30     4    84 1
    31     4    86 1
    32     4    94 1
    33     4    99 1
    34     4   397 1
    35     4   449 1
    36     5    74 1
    37     5    84 1
    38     5    86 1
    39     5    90 1
    40     5    92 1
    41     5   102 1
    42     6    73 1
    43     6    83 1
    44     6    85 1
    45     6    89 1
    46     6    91 1
    47     7    72 1
    48     7    80 1
    49     7    82 1
    50     7    88 1
    51     7   100 1
    52     7   372 1
    53     7   381 1
    54     8    53 1
    55     8    71 1
    56     8    79 1
    57     8    81 1
    58     8    87 1
    59     8    99 1
    60     9    60 1
    61    10    59 1
    62    11    62 1
    63    12    61 1
    64    13    65 1
    65    14    64 1
    66    15   102 1
    67    16   101 1
    68    17    46 1
    69    18    45 1
    70    19    48 1
    71    20    47 1
    72    21    42 1
    73    22    44 1
    74    23    67 1
    75    23   387 1
    76    23   390 1
    77    23   457 1
    78    23   467 1
    79    25    99 1
    80    26   100 1
    81    27    68 1
    82    28    68 1
    83    29    69 1
    84    30    69 1
    85    31    70 1
    86    32    70 1
    87    33    37 1
    88    33    71 1
    89    33    77 1
    90    34    38 1
    91    34    72 1
    92    34    78 1
    93    35    39 1
    94    35    73 1
    95    35    76 1
    96    36    40 1
    97    36    74 1
    98    36    75 1
    99    37    41 1
   100    37    47 1
   101    38    42 1
   102    38    48 1
   103    39    43 1
   104    39    46 1
   105    40    44 1
   106    40    45 1
   107    41    69 1
   108    43    70 1
   109    49    55 1
   110    49    59 1
   111    49   880 1
   112    50    56 1
   113    50    66 1
   114    50   387 1
   115    50   460 1
   116    51    57 1
   117    51    61 1
   118    51  1234 1
   119    52    58 1
   120    52    64 1
   121    53    87 1
   122    53    94 1
   123    53   113 1
   124    54    88 1
   125    54    93 1
   126    54   116 1
   127    55    97 1
   128    55   880 1
   129    56    90 1
   130    56   401 1
   131    56   423 1
   132    56   430 1
   133    56   460 1
   134    57    95 1
   135    58    64 1
   136    58    92 1
   137    63    68 1
   138    66    67 1
   139    66   387 1
   140    66   460 1
   141    67   387 1
   142    67   390 1
   143    67   457 1
   144    67   469 1
   145    75   449 1
   146    80   372 1
   147    80   378 1
   148    80   381 1
   149    82   372 1
   150    84   397 1
   151    90   419 1
   152    90   423 1
   153    90   460 1
   154    96   378 1
   155   100   382 1
   156   103   118 1
   157   104   120 1
   158   105   119 1
   159   106   123 1
   160   107   124 1
   161   108   122 1
   162   109   114 1
   163   110   117 1
   164   111   115 1
   165   113   117 1
   166   113   123 1
   167   114   118 1
   168   114   124 1
   169   114   381 1
   170   115   119 1
   171   115   121 1
   172   116   120 1
   173   116   122 1
   174   117   124 1
   175   118   123 1
   176   124   381 1
   177   125   127 1
   178   125   130 1
   179   125   131 1
   180   125   595 1
   181   125   610 1
   182   125   614 1
   183   125   624 1
   184   126   128 1
   185   126   131 1
   186   126   132 1
   187   126   610 1
   188   126   614 1
   189   126   618 1
   190   127   128 1
   191   127   133 1
   192   127   614 1
   193   127   624 1
   194   128   134 1
   195   128   614 1
   196   128   618 1
   197   129   132 1
   198   129   135 1
   199   129   137 1
   200   129   139 1
   201   130   136 1
   202   130   138 1
   203   130   141 1
   204   130   595 1
   205   131   142 1
   206   131   610 1
   207   131   614 1
   208   131   624 1
   209   131   648 1
   210   131   654 1
   211   132   140 1
   212   132   143 1
   213   132   597 1
   214   132   648 1
   215   134   618 1
   216   142   610 1
   217   142   654 1
   218   143   648 1
   219   144   157 1
   220   145   151 1
   221   145   153 1
   222   146   155 1
   223   146   156 1
   224   149   158 1
   225   150   158 1
   226   153   594 1
   227   154   636 1
   228   156   590 1
   229   156   640 1
   230   159   161 1
   231   159   162 1
   232   159   163 1
   233   160   162 1
   234   160   165 1
   235   160   166 1
   236   161   164 1
   237   161   167 1
   238   161   168 1
   239   162   169 1
   240   163   165 1
   241   163   171 1
   242   164   170 1
   243   164   174 1
   244   164   176 1
   245   165   175 1
   246   166   172 1
   247   166   173 1
   248   166   177 1
   249   178   191 1
   250   179   185 1
   251   179   188 1
   252   180   186 1
   253   181   191 1
   254   182   192 1
   255   183   191 1
   256   184   192 1
   257   193   199 1
   258   193   270 1
   259   193   272 1
   260   193   274 1
   261   193   288 1
   262   193   290 1
   263   194   200 1
   264   194   249 1
   265   194   269 1
   266   194   271 1
   267   194   273 1
   268   194   287 1
   269   194   289 1
   270   194   293 1
   271   195   198 1
   272   195   199 1
   273   195   227 1
   274   195   268 1
   275   195   275 1
   276   195   277 1
   277   195   285 1
   278   195   292 1
   279   196   197 1
   280   196   200 1
   281   196   217 1
   282   196   267 1
   283   196   276 1
   284   196   278 1
   285   196   286 1
   286   196   291 1
   287   196   589 1
   288   196   641 1
   289   197   266 1
   290   197   276 1
   291   197   278 1
   292   197   282 1
   293   197   284 1
   294   197   294 1
   295   198   265 1
   296   198   275 1
   297   198   277 1
   298   198   281 1
   299   198   283 1
   300   199   264 1
   301   199   272 1
   302   199   274 1
   303   199   280 1
   304   199   292 1
   305   200   245 1
   306   200   263 1
   307   200   271 1
   308   200   273 1
   309   200   279 1
   310   200   291 1
   311   201   252 1
   312   202   251 1
   313   203   254 1
   314   204   253 1
   315   205   257 1
   316   206   256 1
   317   207   294 1
   318   208   293 1
   319   209   238 1
   320   210   237 1
   321   211   240 1
   322   212   239 1
   323   213   234 1
   324   214   236 1
   325   215   259 1
   326   215   579 1
   327   215   582 1
   328   215   649 1
   329   215   659 1
   330   217   291 1
   331   218   292 1
   332   219   260 1
   333   220   260 1
   334   221   261 1
   335   222   261 1
   336   223   262 1
   337   224   262 1
   338   225   229 1
   339   225   263 1
   340   225   269 1
   341   226   230 1
   342   226   264 1
   343   226   270 1
   344   227   231 1
   345   227   265 1
   346   227   268 1
   347   228   232 1
   348   228   266 1
   349   228   267 1
   350   229   233 1
   351   229   239 1
   352   230   234 1
   353   230   240 1
   354   231   235 1
   355   231   238 1
   356   232   236 1
   357   232   237 1
   358   233   261 1
   359   235   262 1
   360   241   247 1
   361   241   251 1
   362   241  1072 1
   363   242   248 1
   364   242   258 1
   365   242   579 1
   366   242   652 1
   367   243   249 1
   368   243   253 1
   369   243  1426 1
   370   244   250 1
   371   244   256 1
   372   245   279 1
   373   245   286 1
   374   245   305 1
   375   246   280 1
   376   246   285 1
   377   246   308 1
   378   247   289 1
   379   247  1072 1
   380   248   282 1
   381   248   593 1
   382   248   615 1
   383   248   622 1
   384   248   652 1
   385   249   287 1
   386   250   256 1
   387   250   284 1
   388   255   260 1
   389   258   259 1
   390   258   579 1
   391   258   652 1
   392   259   579 1
   393   259   582 1
   394   259   649 1
   395   259   661 1
   396   267   641 1
   397   276   589 1
   398   282   611 1
   399   282   615 1
   400   282   652 1
   401   295   310 1
   402   296   312 1
   403   297   311 1
   404   298   315 1
   405   299   316 1
   406   300   314 1
   407   301   306 1
   408   302   309 1
   409   303   307 1
   410   305   309 1
   411   305   315 1
   412   306   310 1
   413   306   316 1
   414   307   311 1
   415   307   313 1
   416   308   312 1
   417   308   314 1
   418   309   316 1
   419   310   315 1
   420   317   319 1
   421   317   322 1
   422   317   323 1
   423   318   320 1
   424   318   323 1
   425   318   324 1
   426   319   320 1
   427   319   325 1
   428   320   326 1
   429   321   324 1
   430   321   327 1
   431   321   329 1
   432   321   331 1
   433   322   328 1
   434   322   330 1
   435   322   333 1
   436   323   334 1
   437   324   332 1
   438   324   335 1
   439   336   349 1
   440   337   343 1
   441   337   345 1
   442   338   347 1
   443   338   348 1
   444   341   350 1
   445   342   350 1
   446   351   353 1
   447   351   354 1
   448   351   355 1
   449   352   354 1
   450   352   357 1
   451   352   358 1
   452   353   356 1
   453   353   359 1
   454   353   360 1
   455   354   361 1
   456   355   357 1
   457   355   363 1
   458   356   362 1
   459   356   366 1
   460   356   368 1
   461   357   367 1
   462   358   364 1
   463   358   365 1
   464   358   369 1
   465   370   383 1
   466   371   377 1
   467   371   380 1
   468   372   378 1
   469   373   383 1
   470   374   384 1
   471   375   383 1
   472   376   384 1
   473   385   391 1
   474   385   462 1
   475   385   464 1
   476   385   466 1
   477   385   480 1
   478   385   482 1
   479   385   756 1
   480   385   767 1
   481   386   392 1
   482   386   441 1
   483   386   461 1
   484   386   463 1
   485   386   465 1
   486   386   479 1
   487   386   481 1
   488   386   485 1
   489   387   390 1
   490   387   391 1
   491   387   419 1
   492   387   460 1
   493   387   467 1
   494   387   469 1
   495   387   477 1
   496   387   484 1
   497   387   766 1
   498   388   389 1
   499   388   392 1
   500   388   409 1
   501   388   459 1
   502   388   468 1
   503   388   470 1
   504   388   478 1
   505   388   483 1
   506   389   458 1
   507   389   468 1
   508   389   470 1
   509   389   474 1
   510   389   476 1
   511   389   486 1
   512   390   457 1
   513   390   467 1
   514   390   469 1
   515   390   473 1
   516   390   475 1
   517   391   456 1
   518   391   464 1
   519   391   466 1
   520   391   472 1
   521   391   484 1
   522   391   756 1
   523   391   765 1
   524   392   437 1
   525   392   455 1
   526   392   463 1
   527   392   465 1
   528   392   471 1
   529   392   483 1
   530   393   444 1
   531   394   443 1
   532   395   446 1
   533   396   445 1
   534   397   449 1
   535   398   448 1
   536   399   486 1
   537   400   485 1
   538   401   430 1
   539   402   429 1
   540   403   432 1
   541   404   431 1
   542   405   426 1
   543   406   428 1
   544   407   451 1
   545   409   483 1
   546   410   484 1
   547   411   452 1
   548   412   452 1
   549   413   453 1
   550   414   453 1
   551   415   454 1
   552   416   454 1
   553   417   421 1
   554   417   455 1
   555   417   461 1
   556   418   422 1
   557   418   456 1
   558   418   462 1
   559   419   423 1
   560   419   457 1
   561   419   460 1
   562   420   424 1
   563   420   458 1
   564   420   459 1
   565   421   425 1
   566   421   431 1
   567   422   426 1
   568   422   432 1
   569   423   427 1
   570   423   430 1
   571   424   428 1
   572   424   429 1
   573   425   453 1
   574   427   454 1
   575   433   439 1
   576   433   443 1
   577   433  1264 1
   578   434   440 1
   579   434   450 1
   580   435   441 1
   581   435   445 1
   582   436   442 1
   583   436   448 1
   584   437   471 1
   585   437   478 1
   586   437   497 1
   587   438   472 1
   588   438   477 1
   589   438   500 1
   590   439   481 1
   591   439  1264 1
   592   440   474 1
   593   441   479 1
   594   442   448 1
   595   442   476 1
   596   447   452 1
   597   450   451 1
   598   464   756 1
   599   464   762 1
   600   464   765 1
   601   466   756 1
   602   480   762 1
   603   484   766 1
   604   487   502 1
   605   488   504 1
   606   489   503 1
   607   490   507 1
   608   491   508 1
   609   492   506 1
   610   493   498 1
   611   494   501 1
   612   495   499 1
   613   497   501 1
   614   497   507 1
   615   498   502 1
   616   498   508 1
   617   498   765 1
   618   499   503 1
   619   499   505 1
   620   500   504 1
   621   500   506 1
   622   501   508 1
   623   502   507 1
   624   508   765 1
   625   509   511 1
   626   509   514 1
   627   509   515 1
   628   510   512 1
   629   510   515 1
   630   510   516 1
   631   511   512 1
   632   511   517 1
   633   512   518 1
   634   513   516 1
   635   513   519 1
   636   513   521 1
   637   513   523 1
   638   514   520 1
   639   514   522 1
   640   514   525 1
   641   515   526 1
   642   516   524 1
   643   516   527 1
   644   528   541 1
   645   529   535 1
   646   529   537 1
   647   530   539 1
   648   530   540 1
   649   533   542 1
   650   534   542 1
   651   543   545 1
   652   543   546 1
   653   543   547 1
   654   544   546 1
   655   544   549 1
   656   544   550 1
   657   545   548 1
   658   545   551 1
   659   545   552 1
   660   546   553 1
   661   547   549 1
   662   547   555 1
   663   548   554 1
   664   548   558 1
   665   548   560 1
   666   549   559 1
   667   550   556 1
   668   550   557 1
   669   550   561 1
   670   562   575 1
   671   563   569 1
   672   563   572 1
   673   564   570 1
   674   565   575 1
   675   566   576 1
   676   567   575 1
   677   568   576 1
   678   577   583 1
   679   577   654 1
   680   577   656 1
   681   577   658 1
   682   577   672 1
   683   577   674 1
   684   578   584 1
   685   578   633 1
   686   578   653 1
   687   578   655 1
   688   578   657 1
   689   578   671 1
   690   578   673 1
   691   578   677 1
   692   579   582 1
   693   579   583 1
   694   579   611 1
   695   579   652 1
   696   579   659 1
   697   579   661 1
   698   579   669 1
   699   579   676 1
   700   580   581 1
   701   580   584 1
   702   580   601 1
   703   580   651 1
   704   580   660 1
   705   580   662 1
   706   580   670 1
   707   580   675 1
   708   581   650 1
   709   581   660 1
   710   581   662 1
   711   581   666 1
   712   581   668 1
   713   581   678 1
   714   582   649 1
   715   582   659 1
   716   582   661 1
   717   582   665 1
   718   582   667 1
   719   583   648 1
   720   583   656 1
   721   583   658 1
   722   583   664 1
   723   583   676 1
   724   584   629 1
   725   584   647 1
   726   584   655 1
   727   584   657 1
   728   584   663 1
   729   584   675 1
   730   585   636 1
   731   586   635 1
   732   587   638 1
   733   588   637 1
   734   589   641 1
   735   590   640 1
   736   591   678 1
   737   592   677 1
   738   593   622 1
   739   594   621 1
   740   595   624 1
   741   596   623 1
   742   597   618 1
   743   598   620 1
   744   599   643 1
   745   601   675 1
   746   602   676 1
   747   603   644 1
   748   604   644 1
   749   605   645 1
   750   606   645 1
   751   607   646 1
   752   608   646 1
   753   609   613 1
   754   609   647 1
   755   609   653 1
   756   610   614 1
   757   610   648 1
   758   610   654 1
   759   611   615 1
   760   611   649 1
   761   611   652 1
   762   612   616 1
   763   612   650 1
   764   612   651 1
   765   613   617 1
   766   613   623 1
   767   614   618 1
   768   614   624 1
   769   615   619 1
   770   615   622 1
   771   616   620 1
   772   616   621 1
   773   617   645 1
   774   619   646 1
   775   625   631 1
   776   625   635 1
   777   625  1456 1
   778   626   632 1
   779   626   642 1
   780   627   633 1
   781   627   637 1
   782   628   634 1
   783   628   640 1
   784   629   663 1
   785   629   670 1
   786   629   689 1
   787   630   664 1
   788   630   669 1
   789   630   692 1
   790   631   673 1
   791   631  1456 1
   792   632   666 1
   793   633   671 1
   794   634   640 1
   795   634   668 1
   796   639   644 1
   797   642   643 1
   798   679   694 1
   799   680   696 1
   800   681   695 1
   801   682   699 1
   802   683   700 1
   803   684   698 1
   804   685   690 1
   805   686   693 1
   806   687   691 1
   807   689   693 1
   808   689   699 1
   809   690   694 1
   810   690   700 1
   811   691   695 1
   812   691   697 1
   813   692   696 1
   814   692   698 1
   815   693   700 1
   816   694   699 1
   817   701   703 1
   818   701   706 1
   819   701   707 1
   820   702   704 1
   821   702   707 1
   822   702   708 1
   823   703   704 1
   824   703   709 1
   825   704   710 1
   826   705   708 1
   827   705   711 1
   828   705   713 1
   829   705   715 1
   830   706   712 1
   831   706   714 1
   832   706   717 1
   833   707   718 1
   834   708   716 1
   835   708   719 1
   836   720   733 1
   837   721   727 1
   838   721   729 1
   839   722   731 1
   840   722   732 1
   841   725   734 1
   842   726   734 1
   843   735   737 1
   844   735   738 1
   845   735   739 1
   846   736   738 1
   847   736   741 1
   848   736   742 1
   849   737   740 1
   850   737   743 1
   851   737   744 1
   852   738   745 1
   853   739   741 1
   854   739   747 1
   855   740   746 1
   856   740   750 1
   857   740   752 1
   858   741   751 1
   859   742   748 1
   860   742   749 1
   861   742   753 1
   862   754   767 1
   863   755   761 1
   864   755   764 1
   865   756   762 1
   866   757   767 1
   867   758   768 1
   868   759   767 1
   869   760   768 1
   870   769   775 1
   871   769   846 1
   872   769   848 1
   873   769   850 1
   874   769   864 1
   875   769   866 1
   876   769  1140 1
   877   769  1151 1
   878   770   776 1
   879   770   825 1
   880   770   845 1
   881   770   847 1
   882   770   849 1
   883   770   863 1
   884   770   865 1
   885   770   869 1
   886   771   774 1
   887   771   775 1
   888   771   803 1
   889   771   844 1
   890   771   851 1
   891   771   853 1
   892   771   861 1
   893   771   868 1
   894   771  1150 1
   895   772   773 1
   896   772   776 1
   897   772   793 1
   898   772   843 1
   899   772   852 1
   900   772   854 1
   901   772   862 1
   902   772   867 1
   903   772  1165 1
   904   772  1217 1
   905   773   842 1
   906   773   852 1
   907   773   854 1
   908   773   858 1
   909   773   860 1
   910   773   870 1
   911   774   841 1
   912   774   851 1
   913   774   853 1
   914   774   857 1
   915   774   859 1
   916   775   840 1
   917   775   848 1
   918   775   850 1
   919   775   856 1
   920   775   868 1
   921   775  1140 1
   922   775  1149 1
   923   776   821 1
   924   776   839 1
   925   776   847 1
   926   776   849 1
   927   776   855 1
   928   776   867 1
   929   777   828 1
   930   778   827 1
   931   779   830 1
   932   780   829 1
   933   781   833 1
   934   782   832 1
   935   783   870 1
   936   784   869 1
   937   785   814 1
   938   786   813 1
   939   787   816 1
   940   788   815 1
   941   789   810 1
   942   790   812 1
   943   791   835 1
   944   791  1155 1
   945   791  1158 1
   946   791  1225 1
   947   791  1235 1
   948   793   867 1
   949   794   868 1
   950   795   836 1
   951   796   836 1
   952   797   837 1
   953   798   837 1
   954   799   838 1
   955   800   838 1
   956   801   805 1
   957   801   839 1
   958   801   845 1
   959   802   806 1
   960   802   840 1
   961   802   846 1
   962   803   807 1
   963   803   841 1
   964   803   844 1
   965   804   808 1
   966   804   842 1
   967   804   843 1
   968   805   809 1
   969   805   815 1
   970   806   810 1
   971   806   816 1
   972   807   811 1
   973   807   814 1
   974   808   812 1
   975   808   813 1
   976   809   837 1
   977   811   838 1
   978   817   823 1
   979   817   827 1
   980   818   824 1
   981   818   834 1
   982   818  1155 1
   983   818  1228 1
   984   819   825 1
   985   819   829 1
   986   820   826 1
   987   820   832 1
   988   821   855 1
   989   821   862 1
   990   821   881 1
   991   822   856 1
   992   822   861 1
   993   822   884 1
   994   823   865 1
   995   824   858 1
   996   824  1169 1
   997   824  1191 1
   998   824  1198 1
   999   824  1228 1
  1000   825   863 1
  1001   826   832 1
  1002   826   860 1
  1003   831   836 1
  1004   834   835 1
  1005   834  1155 1
  1006   834  1228 1
  1007   835  1155 1
  1008   835  1158 1
  1009   835  1225 1
  1010   835  1237 1
  1011   843  1217 1
  1012   848  1140 1
  1013   848  1146 1
  1014   848  1149 1
  1015   850  1140 1
  1016   852  1165 1
  1017   858  1187 1
  1018   858  1191 1
  1019   858  1228 1
  1020   864  1146 1
  1021   868  1150 1
  1022   871   886 1
  1023   872   888 1
  1024   873   887 1
  1025   874   891 1
  1026   875   892 1
  1027   876   890 1
  1028   877   882 1
  1029   878   885 1
  1030   879   883 1
  1031   881   885 1
  1032   881   891 1
  1033   882   886 1
  1034   882   892 1
  1035   882  1149 1
  1036   883   887 1
  1037   883   889 1
  1038   884   888 1
  1039   884   890 1
  1040   885   892 1
  1041   886   891 1
  1042   892  1149 1
  1043   893   895 1
  1044   893   898 1
  1045   893   899 1
  1046   893  1363 1
  1047   893  1378 1
  1048   893  1382 1
  1049   893  1392 1
  1050   894   896 1
  1051   894   899 1
  1052   894   900 1
  1053   894  1378 1
  1054   894  1382 1
  1055   894  1386 1
  1056   895   896 1
  1057   895   901 1
  1058   895  1382 1
  1059   895  1392 1
  1060   896   902 1
  1061   896  1382 1
  1062   896  1386 1
  1063   897   900 1
  1064   897   903 1
  1065   897   905 1
  1066   897   907 1
  1067   898   904 1
  1068   898   906 1
  1069   898   909 1
  1070   898  1363 1
  1071   899   910 1
  1072   899  1378 1
  1073   899  1382 1
  1074   899  1392 1
  1075   899  1416 1
  1076   899  1422 1
  1077   900   908 1
  1078   900   911 1
  1079   900  1365 1
  1080   900  1416 1
  1081   902  1386 1
  1082   910  1378 1
  1083   910  1422 1
  1084   911  1416 1
  1085   912   925 1
  1086   913   919 1
  1087   913   921 1
  1088   914   923 1
  1089   914   924 1
  1090   917   926 1
  1091   918   926 1
  1092   921  1362 1
  1093   922  1404 1
  1094   924  1358 1
  1095   924  1408 1
  1096   927   929 1
  1097   927   930 1
  1098   927   931 1
  1099   928   930 1
  1100   928   933 1
  1101   928   934 1
  1102   929   932 1
  1103   929   935 1
  1104   929   936 1
  1105   930   937 1
  1106   931   933 1
  1107   931   939 1
  1108   932   938 1
  1109   932   942 1
  1110   932   944 1
  1111   933   943 1
  1112   934   940 1
  1113   934   941 1
  1114   934   945 1
  1115   946   959 1
  1116   947   953 1
  1117   947   956 1
  1118   948   954 1
  1119   949   959 1
  1120   950   960 1
  1121   951   959 1
  1122   952   960 1
  1123   961   967 1
  1124   961  1038 1
  1125   961  1040 1
  1126   961  1042 1
  1127   961  1056 1
  1128   961  1058 1
  1129   962   968 1
  1130   962  1017 1
  1131   962  1037 1
  1132   962  1039 1
  1133   962  1041 1
  1134   962  1055 1
  1135   962  1057 1
  1136   962  1061 1
  1137   963   966 1
  1138   963   967 1
  1139   963   995 1
  1140   963  1036 1
  1141   963  1043 1
  1142   963  1045 1
  1143   963  1053 1
  1144   963  1060 1
  1145   964   965 1
  1146   964   968 1
  1147   964   985 1
  1148   964  1035 1
  1149   964  1044 1
  1150   964  1046 1
  1151   964  1054 1
  1152   964  1059 1
  1153   964  1357 1
  1154   964  1409 1
  1155   965  1034 1
  1156   965  1044 1
  1157   965  1046 1
  1158   965  1050 1
  1159   965  1052 1
  1160   965  1062 1
  1161   966  1033 1
  1162   966  1043 1
  1163   966  1045 1
  1164   966  1049 1
  1165   966  1051 1
  1166   967  1032 1
  1167   967  1040 1
  1168   967  1042 1
  1169   967  1048 1
  1170   967  1060 1
  1171   968  1013 1
  1172   968  1031 1
  1173   968  1039 1
  1174   968  1041 1
  1175   968  1047 1
  1176   968  1059 1
  1177   969  1020 1
  1178   970  1019 1
  1179   971  1022 1
  1180   972  1021 1
  1181   973  1025 1
  1182   974  1024 1
  1183   975  1062 1
  1184   976  1061 1
  1185   977  1006 1
  1186   978  1005 1
  1187   979  1008 1
  1188   980  1007 1
  1189   981  1002 1
  1190   982  1004 1
  1191   983  1027 1
  1192   983  1347 1
  1193   983  1350 1
  1194   983  1417 1
  1195   983  1427 1
  1196   985  1059 1
  1197   986  1060 1
  1198   987  1028 1
  1199   988  1028 1
  1200   989  1029 1
  1201   990  1029 1
  1202   991  1030 1
  1203   992  1030 1
  1204   993   997 1
  1205   993  1031 1
  1206   993  1037 1
  1207   994   998 1
  1208   994  1032 1
  1209   994  1038 1
  1210   995   999 1
  1211   995  1033 1
  1212   995  1036 1
  1213   996  1000 1
  1214   996  1034 1
  1215   996  1035 1
  1216   997  1001 1
  1217   997  1007 1
  1218   998  1002 1
  1219   998  1008 1
  1220   999  1003 1
  1221   999  1006 1
  1222  1000  1004 1
  1223  1000  1005 1
  1224  1001  1029 1
  1225  1003  1030 1
  1226  1009  1015 1
  1227  1009  1019 1
  1228  1010  1016 1
  1229  1010  1026 1
  1230  1010  1347 1
  1231  1010  1420 1
  1232  1011  1017 1
  1233  1011  1021 1
  1234  1012  1018 1
  1235  1012  1024 1
  1236  1013  1047 1
  1237  1013  1054 1
  1238  1013  1073 1
  1239  1014  1048 1
  1240  1014  1053 1
  1241  1014  1076 1
  1242  1015  1057 1
  1243  1016  1050 1
  1244  1016  1361 1
  1245  1016  1383 1
  1246  1016  1390 1
  1247  1016  1420 1
  1248  1017  1055 1
  1249  1018  1024 1
  1250  1018  1052 1
  1251  1023  1028 1
  1252  1026  1027 1
  1253  1026  1347 1
  1254  1026  1420 1
  1255  1027  1347 1
  1256  1027  1350 1
  1257  1027  1417 1
  1258  1027  1429 1
  1259  1035  1409 1
  1260  1044  1357 1
  1261  1050  1379 1
  1262  1050  1383 1
  1263  1050  1420 1
  1264  1063  1078 1
  1265  1064  1080 1
  1266  1065  1079 1
  1267  1066  1083 1
  1268  1067  1084 1
  1269  1068  1082 1
  1270  1069  1074 1
  1271  1070  1077 1
  1272  1071  1075 1
  1273  1073  1077 1
  1274  1073  1083 1
  1275  1074  1078 1
  1276  1074  1084 1
  1277  1075  1079 1
  1278  1075  1081 1
  1279  1076  1080 1
  1280  1076  1082 1
  1281  1077  1084 1
  1282  1078  1083 1
  1283  1085  1087 1
  1284  1085  1090 1
  1285  1085  1091 1
  1286  1086  1088 1
  1287  1086  1091 1
  1288  1086  1092 1
  1289  1087  1088 1
  1290  1087  1093 1
  1291  1088  1094 1
  1292  1089  1092 1
  1293  1089  1095 1
  1294  1089  1097 1
  1295  1089  1099 1
  1296  1090  1096 1
  1297  1090  1098 1
  1298  1090  1101 1
  1299  1091  1102 1
  1300  1092  1100 1
  1301  1092  1103 1
  1302  1104  1117 1
  1303  1105  1111 1
  1304  1105  1113 1
  1305  1106  1115 1
  1306  1106  1116 1
  1307  1109  1118 1
  1308  1110  1118 1
  1309  1119  1121 1
  1310  1119  1122 1
  1311  1119  1123 1
  1312  1120  1122 1
  1313  1120  1125 1
  1314  1120  1126 1
  1315  1121  1124 1
  1316  1121  1127 1
  1317  1121  1128 1
  1318  1122  1129 1
  1319  1123  1125 1
  1320  1123  1131 1
  1321  1124  1130 1
  1322  1124  1134 1
  1323  1124  1136 1
  1324  1125  1135 1
  1325  1126  1132 1
  1326  1126  1133 1
  1327  1126  1137 1
  1328  1138  1151 1
  1329  1139  1145 1
  1330  1139  1148 1
  1331  1140  1146 1
  1332  1141  1151 1
  1333  1142  1152 1
  1334  1143  1151 1
  1335  1144  1152 1
  1336  1153  1159 1
  1337  1153  1230 1
  1338  1153  1232 1
  1339  1153  1234 1
  1340  1153  1248 1
  1341  1153  1250 1
  1342  1153  1524 1
  1343  1153  1535 1
  1344  1154  1160 1
  1345  1154  1209 1
  1346  1154  1229 1
  1347  1154  1231 1
  1348  1154  1233 1
  1349  1154  1247 1
  1350  1154  1249 1
  1351  1154  1253 1
  1352  1155  1158 1
  1353  1155  1159 1
  1354  1155  1187 1
  1355  1155  1228 1
  1356  1155  1235 1
  1357  1155  1237 1
  1358  1155  1245 1
  1359  1155  1252 1
  1360  1155  1534 1
  1361  1156  1157 1
  1362  1156  1160 1
  1363  1156  1177 1
  1364  1156  1227 1
  1365  1156  1236 1
  1366  1156  1238 1
  1367  1156  1246 1
  1368  1156  1251 1
  1369  1157  1226 1
  1370  1157  1236 1
  1371  1157  1238 1
  1372  1157  1242 1
  1373  1157  1244 1
  1374  1157  1254 1
  1375  1158  1225 1
  1376  1158  1235 1
  1377  1158  1237 1
  1378  1158  1241 1
  1379  1158  1243 1
  1380  1159  1224 1
  1381  1159  1232 1
  1382  1159  1234 1
  1383  1159  1240 1
  1384  1159  1252 1
  1385  1159  1524 1
  1386  1159  1533 1
  1387  1160  1205 1
  1388  1160  1223 1
  1389  1160  1231 1
  1390  1160  1233 1
  1391  1160  1239 1
  1392  1160  1251 1
  1393  1161  1212 1
  1394  1162  1211 1
  1395  1163  1214 1
  1396  1164  1213 1
  1397  1165  1217 1
  1398  1166  1216 1
  1399  1167  1254 1
  1400  1168  1253 1
  1401  1169  1198 1
  1402  1170  1197 1
  1403  1171  1200 1
  1404  1172  1199 1
  1405  1173  1194 1
  1406  1174  1196 1
  1407  1175  1219 1
  1408  1177  1251 1
  1409  1178  1252 1
  1410  1179  1220 1
  1411  1180  1220 1
  1412  1181  1221 1
  1413  1182  1221 1
  1414  1183  1222 1
  1415  1184  1222 1
  1416  1185  1189 1
  1417  1185  1223 1
  1418  1185  1229 1
  1419  1186  1190 1
  1420  1186  1224 1
  1421  1186  1230 1
  1422  1187  1191 1
  1423  1187  1225 1
  1424  1187  1228 1
  1425  1188  1192 1
  1426  1188  1226 1
  1427  1188  1227 1
  1428  1189  1193 1
  1429  1189  1199 1
  1430  1190  1194 1
  1431  1190  1200 1
  1432  1191  1195 1
  1433  1191  1198 1
  1434  1192  1196 1
  1435  1192  1197 1
  1436  1193  1221 1
  1437  1195  1222 1
  1438  1201  1207 1
  1439  1201  1211 1
  1440  1202  1208 1
  1441  1202  1218 1
  1442  1203  1209 1
  1443  1203  1213 1
  1444  1204  1210 1
  1445  1204  1216 1
  1446  1205  1239 1
  1447  1205  1246 1
  1448  1205  1265 1
  1449  1206  1240 1
  1450  1206  1245 1
  1451  1206  1268 1
  1452  1207  1249 1
  1453  1208  1242 1
  1454  1209  1247 1
  1455  1210  1216 1
  1456  1210  1244 1
  1457  1215  1220 1
  1458  1218  1219 1
  1459  1232  1524 1
  1460  1232  1530 1
  1461  1232  1533 1
  1462  1234  1524 1
  1463  1248  1530 1
  1464  1252  1534 1
  1465  1255  1270 1
  1466  1256  1272 1
  1467  1257  1271 1
  1468  1258  1275 1
  1469  1259  1276 1
  1470  1260  1274 1
  1471  1261  1266 1
  1472  1262  1269 1
  1473  1263  1267 1
  1474  1265  1269 1
  1475  1265  1275 1
  1476  1266  1270 1
  1477  1266  1276 1
  1478  1266  1533 1
  1479  1267  1271 1
  1480  1267  1273 1
  1481  1268  1272 1
  1482  1268  1274 1
  1483  1269  1276 1
  1484  1270  1275 1
  1485  1276  1533 1
  1486  1277  1279 1
  1487  1277  1282 1
  1488  1277  1283 1
  1489  1278  1280 1
  1490  1278  1283 1
  1491  1278  1284 1
  1492  1279  1280 1
  1493  1279  1285 1
  1494  1280  1286 1
  1495  1281  1284 1
  1496  1281  1287 1
  1497  1281  1289 1
  1498  1281  1291 1
  1499  1282  1288 1
  1500  1282  1290 1
  1501  1282  1293 1
  1502  1283  1294 1
  1503  1284  1292 1
  1504  1284  1295 1
  1505  1296  1309 1
  1506  1297  1303 1
  1507  1297  1305 1
  1508  1298  1307 1
  1509  1298  1308 1
  1510  1301  1310 1
  1511  1302  1310 1
  1512  1311  1313 1
  1513  1311  1314 1
  1514  1311  1315 1
  1515  1312  1314 1
  1516  1312  1317 1
  1517  1312  1318 1
  1518  1313  1316 1
  1519  1313  1319 1
  1520  1313  1320 1
  1521  1314  1321 1
  1522  1315  1317 1
  1523  1315  1323 1
  1524  1316  1322 1
  1525  1316  1326 1
  1526  1316  1328 1
  1527  1317  1327 1
  1528  1318  1324 1
  1529  1318  1325 1
  1530  1318  1329 1
  1531  1330  1343 1
  1532  1331  1337 1
  1533  1331  1340 1
  1534  1332  1338 1
  1535  1333  1343 1
  1536  1334  1344 1
  1537  1335  1343 1
  1538  1336  1344 1
  1539  1345  1351 1
  1540  1345  1422 1
  1541  1345  1424 1
  1542  1345  1426 1
  1543  1345  1440 1
  1544  1345  1442 1
  1545  1346  1352 1
  1546  1346  1401 1
  1547  1346  1421 1
  1548  1346  1423 1
  1549  1346  1425 1
  1550  1346  1439 1
  1551  1346  1441 1
  1552  1346  1445 1
  1553  1347  1350 1
  1554  1347  1351 1
  1555  1347  1379 1
  1556  1347  1420 1
  1557  1347  1427 1
  1558  1347  1429 1
  1559  1347  1437 1
  1560  1347  1444 1
  1561  1348  1349 1
  1562  1348  1352 1
  1563  1348  1369 1
  1564  1348  1419 1
  1565  1348  1428 1
  1566  1348  1430 1
  1567  1348  1438 1
  1568  1348  1443 1
  1569  1349  1418 1
  1570  1349  1428 1
  1571  1349  1430 1
  1572  1349  1434 1
  1573  1349  1436 1
  1574  1349  1446 1
  1575  1350  1417 1
  1576  1350  1427 1
  1577  1350  1429 1
  1578  1350  1433 1
  1579  1350  1435 1
  1580  1351  1416 1
  1581  1351  1424 1
  1582  1351  1426 1
  1583  1351  1432 1
  1584  1351  1444 1
  1585  1352  1397 1
  1586  1352  1415 1
  1587  1352  1423 1
  1588  1352  1425 1
  1589  1352  1431 1
  1590  1352  1443 1
  1591  1353  1404 1
  1592  1354  1403 1
  1593  1355  1406 1
  1594  1356  1405 1
  1595  1357  1409 1
  1596  1358  1408 1
  1597  1359  1446 1
  1598  1360  1445 1
  1599  1361  1390 1
  1600  1362  1389 1
  1601  1363  1392 1
  1602  1364  1391 1
  1603  1365  1386 1
  1604  1366  1388 1
  1605  1367  1411 1
  1606  1369  1443 1
  1607  1370  1444 1
  1608  1371  1412 1
  1609  1372  1412 1
  1610  1373  1413 1
  1611  1374  1413 1
  1612  1375  1414 1
  1613  1376  1414 1
  1614  1377  1381 1
  1615  1377  1415 1
  1616  1377  1421 1
  1617  1378  1382 1
  1618  1378  1416 1
  1619  1378  1422 1
  1620  1379  1383 1
  1621  1379  1417 1
  1622  1379  1420 1
  1623  1380  1384 1
  1624  1380  1418 1
  1625  1380  1419 1
  1626  1381  1385 1
  1627  1381  1391 1
  1628  1382  1386 1
  1629  1382  1392 1
  1630  1383  1387 1
  1631  1383  1390 1
  1632  1384  1388 1
  1633  1384  1389 1
  1634  1385  1413 1
  1635  1387  1414 1
  1636  1393  1399 1
  1637  1393  1403 1
  1638  1394  1400 1
  1639  1394  1410 1
  1640  1395  1401 1
  1641  1395  1405 1
  1642  1396  1402 1
  1643  1396  1408 1
  1644  1397  1431 1
  1645  1397  1438 1
  1646  1397  1457 1
  1647  1398  1432 1
  1648  1398  1437 1
  1649  1398  1460 1
  1650  1399  1441 1
  1651  1400  1434 1
  1652  1401  1439 1
  1653  1402  1408 1
  1654  1402  1436 1
  1655  1407  1412 1
  1656  1410  1411 1
  1657  1447  1462 1
  1658  1448  1464 1
  1659  1449  1463 1
  1660  1450  1467 1
  1661  1451  1468 1
  1662  1452  1466 1
  1663  1453  1458 1
  1664  1454  1461 1
  1665  1455  1459 1
  1666  1457  1461 1
  1667  1457  1467 1
  1668  1458  1462 1
  1669  1458  1468 1
  1670  1459  1463 1
  1671  1459  1465 1
  1672  1460  1464 1
  1673  1460  1466 1
  1674  1461  1468 1
  1675  1462  1467 1
  1676  1469  1471 1
  1677  1469  1474 1
  1678  1469  1475 1
  1679  1470  1472 1
  1680  1470  1475 1
  1681  1470  1476 1
  1682  1471  1472 1
  1683  1471  1477 1
  1684  1472  1478 1
  1685  1473  1476 1
  1686  1473  1479 1
  1687  1473  1481 1
  1688  1473  1483 1
  1689  1474  1480 1
  1690  1474  1482 1
  1691  1474  1485 1
  1692  1475  1486 1
  1693  1476  1484 1
  1694  1476  1487 1
  1695  1488  1501 1
  1696  1489  1495 1
  1697  1489  1497 1
  1698  1490  1499 1
  1699  1490  1500 1
  1700  1493  1502 1
  1701  1494  1502 1
  1702  1503  1505 1
  1703  1503  1506 1
  1704  1503  1507 1
  1705  1504  1506 1
  1706  1504  1509 1
  1707  1504  1510 1
  1708  1505  1508 1
  1709  1505  1511 1
  1710  1505  1512 1
  1711  1506  1513 1
  1712  1507  1509 1
  1713  1507  1515 1
  1714  1508  1514 1
  1715  1508  1518 1
  1716  1508  1520 1
  1717  1509  1519 1
  1718  1510  1516 1
  1719  1510  1517 1
  1720  1510  1521 1
  1721  1522  1535 1
  1722  1523  1529 1
  1723  1523  1532 1
  1724  1524  1530 1
  1725  1525  1535 1
  1726  1526  1536 1
  1727  1527  1535 1
  1728  1528  1536 1
