@<TRIPOS>MOLECULE
Lattice="63.99775284391842 -2.229059772 0.358272888 -26.068117019214007 58.4500383655414 -0.226073676 -18.53858567587444 -28.26574531709237 52.37843698097919" Properties=species:S:1:pos:R:3 i=224 E=-1362.5078407453 pbc="T T T"
 9152 10088 0 0 0
SMALL
GASTEIGER

@<TRIPOS>ATOM
      1 TI         -2.8554    2.2298   11.2464 Ti      1  UNL1        0.0000
      2 TI          7.9750    5.1110    1.8816 Ti      1  UNL1        0.0000
      3 TI          1.2413   -1.7064    9.4264 Ti      1  UNL1        0.0000
      4 TI          2.7524    7.4557    3.6534 Ti      1  UNL1        0.0000
      5 TI          1.7539    9.1340    1.7490 Ti      1  UNL1        0.0000
      6 TI          3.1295   -1.9608   11.3798 Ti      1  UNL1        0.0000
      7 TI         -1.9062    0.4939    9.3549 Ti      1  UNL1        0.0000
      8 TI          5.9872    5.4135    3.7291 Ti      1  UNL1        0.0000
      9 H          -2.3536    6.1268   11.0269 H       1  UNL1        0.0000
     10 H           8.7838    1.2049    2.2023 H       1  UNL1        0.0000
     11 H          -6.8153    1.4731   10.8639 H       1  UNL1        0.0000
     12 H          11.3572    7.1153    2.0822 H       1  UNL1        0.0000
     13 H           4.1051   -5.9953   10.9939 H       1  UNL1        0.0000
     14 H          -2.3047    8.5441    2.0711 H       1  UNL1        0.0000
     15 H           2.2483    7.4972   -0.1241 H       1  UNL1        0.0000
     16 H           6.0995    4.8683    0.1817 H       1  UNL1        0.0000
     17 H           3.6394   -2.6279    5.8687 H       1  UNL1        0.0000
     18 H           1.0290    9.2927    7.2723 H       1  UNL1        0.0000
     19 H          -5.9789    3.8825    8.9990 H       1  UNL1        0.0000
     20 H          10.7298    3.0267    4.1876 H       1  UNL1        0.0000
     21 H          -3.6778    2.4351    5.6652 H       1  UNL1        0.0000
     22 H          -1.3462   10.9619    4.1022 H       1  UNL1        0.0000
     23 H           2.1461   12.2368    2.6045 H       1  UNL1        0.0000
     24 H           8.6260   -0.8139    3.4048 H      59  UNL59       0.0000
     25 H           4.8451    7.1358    2.3148 H       1  UNL1        0.0000
     26 H           0.1605    0.1420   10.7200 H       1  UNL1        0.0000
     27 H           7.3642   -0.0259    9.7694 H       1  UNL1        0.0000
     28 H           5.8831   -0.4950   10.5168 H       1  UNL1        0.0000
     29 H           7.9383    4.4077    8.6705 H       1  UNL1        0.0000
     30 H           7.3686    4.7663    7.0520 H       1  UNL1        0.0000
     31 H           6.8754   -4.9808    9.5794 H       1  UNL1        0.0000
     32 H           5.5962   -3.8802   10.0368 H       1  UNL1        0.0000
     33 C           8.5531    4.3697    4.7451 C.3     1  UNL1        0.0000
     34 C          -3.8160    2.4911    8.3994 C.3     1  UNL1        0.0000
     35 C           3.8218   -2.7171    8.5017 C.3     1  UNL1        0.0000
     36 C           0.8163    9.4262    4.6127 C.3     1  UNL1        0.0000
     37 C           9.4491    3.7654    5.7403 C.ar    1  UNL1        0.0000
     38 C          -4.7479    3.1162    7.4223 C.2     1  UNL1        0.0000
     39 C           4.7619   -3.3315    7.5545 C.2     1  UNL1        0.0000
     40 C          -0.0735   10.0730    5.6125 C.ar    1  UNL1        0.0000
     41 C           9.2003    3.8403    7.1467 C.ar    1  UNL1        0.0000
     42 C          -4.5315    2.9962    6.0343 C.3     1  UNL1        0.0000
     43 C           5.8914   -4.0918    8.0076 C.2     1  UNL1        0.0000
     44 C          -1.1682   10.8460    5.1676 C.ar    1  UNL1        0.0000
     45 C           0.1810    9.9022    6.9674 C.ar    1  UNL1        0.0000
     46 C           4.5142   -3.1994    6.1706 C.3     1  UNL1        0.0000
     47 C          10.5828    3.0664    5.2646 C.ar    1  UNL1        0.0000
     48 C          -5.8481    3.8086    7.9210 C.2     1  UNL1        0.0000
     49 C           8.7648    1.2840    0.0582 C.2     1  UNL1        0.0000
     50 C           2.2951   13.0756    0.0832 C.2     1  UNL1        0.0000
     51 C          11.2493    7.0471   -0.0678 C.2     1  UNL1        0.0000
     52 C          -2.1091    8.5895   -0.0872 C.2     1  UNL1        0.0000
     53 C           3.4992    5.1125    5.6180 C.3     1  UNL1        0.0000
     54 C          -1.2569   -1.9819    7.5361 C.2     1  UNL1        0.0000
     55 C           8.6290    2.7388    0.0350 C.2     1  UNL1        0.0000
     56 C           2.2024   11.6421    0.0457 C.2     1  UNL1        0.0000
     57 C           9.9514    6.4303   -0.0210 C.2     1  UNL1        0.0000
     58 C          -0.7067    9.0039   -0.0628 C.2     1  UNL1        0.0000
     59 C           8.8042    0.6149    1.2879 C.3     1  UNL1        0.0000
     60 C          -2.3426    6.7152   11.9408 C.ar    1  UNL1        0.0000
     61 C          11.9046    7.3219    1.1661 C.2     1  UNL1        0.0000
     62 C          -7.3768    1.2938   11.7793 C.3     1  UNL1        0.0000
     63 C           7.3089    0.2494   11.7938 C.ar    1  UNL1        0.0000
     64 C          -2.8062    8.3591    1.1253 C.3     1  UNL1        0.0000
     65 C           4.1467   -6.5225   11.9429 C.3     1  UNL1        0.0000
     66 C           2.3089   13.8268    1.3125 C.2     1  UNL1        0.0000
     67 N           2.3639   13.2279    2.5506 N.pl3   1  UNL1        0.0000
     68 N           6.7299    0.0666   10.5548 N.pl3   1  UNL1        0.0000
     69 N           8.1194    4.4866    7.6780 N.pl3   1  UNL1        0.0000
     70 N           6.2224   -4.2500    9.3250 N.pl3   1  UNL1        0.0000
     71 O           7.3767    4.7748    5.1109 O.3     1  UNL1        0.0000
     72 O          -3.0470    1.5403    8.0011 O.3     1  UNL1        0.0000
     73 O           4.2032   -2.5927    9.7228 O.3     1  UNL1        0.0000
     74 O           0.7504    9.8559    3.4131 O.3     1  UNL1        0.0000
     75 O           1.5868    8.4690    4.9992 O.3     1  UNL1        0.0000
     76 O           2.6513   -2.3487    8.0962 O.3     1  UNL1        0.0000
     77 O           8.9649    4.4505    3.5334 O.3     1  UNL1        0.0000
     78 O          -3.8580    2.9274    9.5991 O.3     1  UNL1        0.0000
     79 O           6.2924    4.1956    2.5344 O.3     1  UNL1        0.0000
     80 O          -1.3538    2.0542   10.0994 O.3     1  UNL1        0.0000
     81 O           7.2312    6.4829    2.9843 O.3     1  UNL1        0.0000
     82 O          -3.1060    0.3296   10.5921 O.3     1  UNL1        0.0000
     83 O           1.5006   -2.8784   10.6868 O.3     1  UNL1        0.0000
     84 O           3.2690    9.0170    2.9149 O.3     1  UNL1        0.0000
     85 O           2.4545   -0.6169   10.2227 O.3     1  UNL1        0.0000
     86 O           1.5628    7.2599    2.3975 O.3     1  UNL1        0.0000
     87 O           3.8718   -3.7326   11.9889 O.2     1  UNL1        0.0000
     88 O           2.1193   10.9406    1.1409 O.2     1  UNL1        0.0000
     89 O           4.6739   -0.9445   11.9838 O.3     1  UNL1        0.0000
     90 O          -0.1167    9.1049    1.0808 O.2     1  UNL1        0.0000
     91 O           9.4121    6.1301    1.1270 O.2     1  UNL1        0.0000
     92 O          -4.7422    2.1697   11.9148 O.2     1  UNL1        0.0000
     93 O           8.6165    3.3758    1.1564 O.2     1  UNL1        0.0000
     94 O          -2.4740    3.9521   11.9961 O.3     1  UNL1        0.0000
     95 O           4.4842    6.5871    3.0354 O.3     1  UNL1        0.0000
     96 O          -0.2177   -0.4167   10.0165 O.3     1  UNL1        0.0000
     97 O           6.9383    5.3620    0.1026 O.3     1  UNL1        0.0000
     98 O           2.3707    8.4640   -0.0641 O.3     1  UNL1        0.0000
     99 H           3.5693    1.2752    8.2768 H       1  UNL1        0.0000
    100 H          -0.3299   -4.4126    6.8242 H       1  UNL1        0.0000
    101 H           4.4049   10.3571    5.5208 H       1  UNL1        0.0000
    102 H           4.6894    3.0328    6.8712 H       1  UNL1        0.0000
    103 H          -0.2265    3.2232    7.6734 H       1  UNL1        0.0000
    104 H          -3.7809   -1.8529    6.5899 H       1  UNL1        0.0000
    105 H           1.1199    1.3770    8.6393 H       1  UNL1        0.0000
    106 H           0.9003    4.9901    6.2947 H       1  UNL1        0.0000
    107 H           5.4871    8.1611    5.1292 H       1  UNL1        0.0000
    108 H          -8.1332    8.3538    5.6656 H      59  UNL59       0.0000
    109 C           2.8586    4.1127    6.5079 C.ar    1  UNL1        0.0000
    110 C           1.6096    2.1483    8.0461 C.ar    1  UNL1        0.0000
    111 C           6.0551    8.9659    5.5966 C.ar    1  UNL1        0.0000
    112 C          -1.9838   -3.0293    6.7737 C.2     1  UNL1        0.0000
    113 C           1.4710    4.1760    6.7365 C.ar    1  UNL1        0.0000
    114 C           2.9933    2.0896    7.8395 C.ar    1  UNL1        0.0000
    115 C           5.4411   10.2047    5.8188 C.ar    1  UNL1        0.0000
    116 C          -1.3660   -4.2690    6.5246 C.3     1  UNL1        0.0000
    117 C           7.3929    8.7572    5.9519 C.ar    1  UNL1        0.0000
    118 C          -3.3215   -2.8190    6.3910 C.3     1  UNL1        0.0000
    119 C           3.6193    3.0687    7.0650 C.ar    1  UNL1        0.0000
    120 C           0.8483    3.1896    7.5009 C.ar    1  UNL1        0.0000
    121 O           4.7395    4.9700    5.3166 O.3     1  UNL1        0.0000
    122 O          -1.8808   -0.9039    7.8494 O.2     1  UNL1        0.0000
    123 O          -0.0595   -2.2274    7.9252 O.2     1  UNL1        0.0000
    124 O           2.7765    6.0616    5.1502 O.3     1  UNL1        0.0000
    125 N           5.9768   10.4780   25.1032 N.pl3   4  UNL4        0.0000
    126 N           6.4515    9.6986   27.0882 N.pl3   4  UNL4        0.0000
    127 C           6.6556    9.2829   24.9191 C.2     4  UNL4        0.0000
    128 C           6.9562    8.7979   26.1658 C.2     4  UNL4        0.0000
    129 C           7.7527   10.6481   28.9770 C.3     4  UNL4        0.0000
    130 C           5.4842   11.3626   24.0396 C.3     4  UNL4        0.0000
    131 C           5.8571   10.7070   26.4230 C.3     4  UNL4        0.0000
    132 C           6.6662    9.6623   28.5533 C.3     4  UNL4        0.0000
    133 H           6.8877    8.8869   23.9383 H       4  UNL4        0.0000
    134 H           7.4744    7.8966   26.4700 H       4  UNL4        0.0000
    135 H           8.7074   10.4188   28.4868 H       4  UNL4        0.0000
    136 H           6.3230   11.6466   23.3952 H       4  UNL4        0.0000
    137 H           7.4748   11.6821   28.7365 H       4  UNL4        0.0000
    138 H           4.7248   10.8239   23.4612 H       4  UNL4        0.0000
    139 H           7.8976   10.5798   30.0636 H       4  UNL4        0.0000
    140 H           6.9525    8.6312   28.8007 H       4  UNL4        0.0000
    141 H           5.0419   12.2516   24.4999 H       4  UNL4        0.0000
    142 H           5.3574   11.5560   26.8726 H       4  UNL4        0.0000
    143 H           5.6984    9.8676   29.0267 H       4  UNL4        0.0000
    144 TI         -7.4901   -4.8367   24.3410 Ti      1  UNL1        0.0000
    145 TI          3.3404   -1.9555   14.9762 Ti      1  UNL1        0.0000
    146 TI         -3.3934   -8.7729   22.5210 Ti      1  UNL1        0.0000
    147 TI         -1.8822    0.3893   16.7480 Ti      1  UNL1        0.0000
    148 TI         -2.8808    2.0676   14.8436 Ti      1  UNL1        0.0000
    149 TI         -1.5052   -9.0272   24.4744 Ti      1  UNL1        0.0000
    150 TI         -6.5409   -6.5726   22.4495 Ti      1  UNL1        0.0000
    151 TI          1.3526   -1.6529   16.8237 Ti      1  UNL1        0.0000
    152 H          -6.9882   -0.9396   24.1216 H       1  UNL1        0.0000
    153 H           4.1492   -5.8615   15.2969 H       1  UNL1        0.0000
    154 H         -11.4500   -5.5933   23.9586 H       1  UNL1        0.0000
    155 H           6.7225    0.0488   15.1769 H       1  UNL1        0.0000
    156 H          -0.5296  -13.0618   24.0885 H       1  UNL1        0.0000
    157 H          -6.9393    1.4777   15.1657 H       1  UNL1        0.0000
    158 H          -2.3863    0.4308   12.9705 H       1  UNL1        0.0000
    159 H           1.4649   -2.1982   13.2763 H       1  UNL1        0.0000
    160 H          -0.9953   -9.6943   18.9633 H       1  UNL1        0.0000
    161 H          -3.6056    2.2263   20.3670 H       1  UNL1        0.0000
    162 H         -10.6135   -3.1839   22.0936 H       1  UNL1        0.0000
    163 H           6.0951   -4.0398   17.2822 H       1  UNL1        0.0000
    164 H          -8.3124   -4.6314   18.7598 H       1  UNL1        0.0000
    165 H          -5.9809    3.8954   17.1969 H       1  UNL1        0.0000
    166 H          -2.4885    5.1704   15.6991 H       1  UNL1        0.0000
    167 H           3.9913   -7.8804   16.4994 H      59  UNL59       0.0000
    168 H           0.2104    0.0694   15.4094 H       1  UNL1        0.0000
    169 H          -4.4741   -6.9245   23.8147 H       1  UNL1        0.0000
    170 H           2.7295   -7.0924   22.8641 H       1  UNL1        0.0000
    171 H           1.2484   -7.5614   23.6114 H       1  UNL1        0.0000
    172 H           3.3037   -2.6587   21.7652 H       1  UNL1        0.0000
    173 H           2.7339   -2.3001   20.1466 H       1  UNL1        0.0000
    174 H           2.2407  -12.0472   22.6740 H       1  UNL1        0.0000
    175 H           0.9616  -10.9466   23.1314 H       1  UNL1        0.0000
    176 C           3.9184   -2.6967   17.8397 C.3     1  UNL1        0.0000
    177 C          -8.4506   -4.5753   21.4940 C.3     1  UNL1        0.0000
    178 C          -0.8129   -9.7836   21.5963 C.3     1  UNL1        0.0000
    179 C          -3.8183    2.3598   17.7074 C.3     1  UNL1        0.0000
    180 C           4.8144   -3.3010   18.8349 C.ar    1  UNL1        0.0000
    181 C          -9.3825   -3.9503   20.5169 C.2     1  UNL1        0.0000
    182 C           0.1273  -10.3979   20.6491 C.2     1  UNL1        0.0000
    183 C          -4.7081    3.0066   18.7071 C.ar    1  UNL1        0.0000
    184 C           4.5657   -3.2261   20.2413 C.ar    1  UNL1        0.0000
    185 C          -9.1661   -4.0703   19.1289 C.3     1  UNL1        0.0000
    186 C           1.2568  -11.1582   21.1022 C.2     1  UNL1        0.0000
    187 C          -5.8029    3.7795   18.2622 C.ar    1  UNL1        0.0000
    188 C          -4.4536    2.8358   20.0620 C.ar    1  UNL1        0.0000
    189 C          -0.1204  -10.2658   19.2652 C.3     1  UNL1        0.0000
    190 C           5.9481   -4.0000   18.3592 C.ar    1  UNL1        0.0000
    191 C         -10.4827   -3.2579   21.0156 C.2     1  UNL1        0.0000
    192 C           4.1302   -5.7824   13.1528 C.2     1  UNL1        0.0000
    193 C          -2.3395    6.0091   13.1778 C.ar    1  UNL1        0.0000
    194 C           6.6146   -0.0193   13.0268 C.ar    1  UNL1        0.0000
    195 C          -6.7437    1.5231   13.0074 C.2     1  UNL1        0.0000
    196 C          -1.1355   -1.9539   18.7126 C.3     1  UNL1        0.0000
    197 C          -5.8916   -9.0483   20.6307 C.2     1  UNL1        0.0000
    198 C           3.9943   -4.3276   13.1296 C.2     1  UNL1        0.0000
    199 C          -2.4323    4.5756   13.1403 C.3     1  UNL1        0.0000
    200 C           5.3168   -0.6362   13.0736 C.3     1  UNL1        0.0000
    201 C          -5.3414    1.9375   13.0319 C.2     1  UNL1        0.0000
    202 C           4.1695   -6.4516   14.3825 C.3     1  UNL1        0.0000
    203 C          -6.9773   -0.3512   25.0354 C.ar    1  UNL1        0.0000
    204 C           7.2699    0.2555   14.2607 C.ar    1  UNL1        0.0000
    205 C         -12.0115   -5.7727   24.8739 C.3     1  UNL1        0.0000
    206 C           2.6743   -6.8170   24.8884 C.ar    1  UNL1        0.0000
    207 C          -7.4409    1.2927   14.2199 C.3     1  UNL1        0.0000
    208 C          -0.4879  -13.5889   25.0375 C.3     1  UNL1        0.0000
    209 C          -2.3258    6.7603   14.4071 C.ar    1  UNL1        0.0000
    210 N          -2.2707    6.1615   15.6452 N.pl3   1  UNL1        0.0000
    211 N           2.0953   -6.9999   23.6494 N.pl3   1  UNL1        0.0000
    212 N           3.4848   -2.5799   20.7726 N.pl3   1  UNL1        0.0000
    213 N           1.5878  -11.3165   22.4196 N.pl3   1  UNL1        0.0000
    214 O           2.7421   -2.2916   18.2055 O.3     1  UNL1        0.0000
    215 O          -7.6816   -5.5262   21.0957 O.3     1  UNL1        0.0000
    216 O          -0.4314   -9.6591   22.8174 O.3     1  UNL1        0.0000
    217 O          -3.8842    2.7894   16.5078 O.3     1  UNL1        0.0000
    218 O          -3.0479    1.4026   18.0938 O.3     1  UNL1        0.0000
    219 O          -1.9833   -9.4151   21.1908 O.3     1  UNL1        0.0000
    220 O           4.3303   -2.6159   16.6280 O.3     1  UNL1        0.0000
    221 O          -8.4926   -4.1390   22.6937 O.3     1  UNL1        0.0000
    222 O           1.6578   -2.8708   15.6290 O.3     1  UNL1        0.0000
    223 O          -5.9884   -5.0122   23.1940 O.3     1  UNL1        0.0000
    224 O           2.5966   -0.5835   16.0789 O.3     1  UNL1        0.0000
    225 O          -7.7406   -6.7369   23.6867 O.3     1  UNL1        0.0000
    226 O          -3.1341   -9.9448   23.7814 O.3     1  UNL1        0.0000
    227 O          -1.3657    1.9506   16.0095 O.3     1  UNL1        0.0000
    228 O          -2.1801   -7.6833   23.3173 O.3     1  UNL1        0.0000
    229 O          -3.0719    0.1935   15.4921 O.3     1  UNL1        0.0000
    230 O          -0.7629  -10.7991   25.0835 O.2     1  UNL1        0.0000
    231 O          -2.5154    3.8742   14.2355 O.3     1  UNL1        0.0000
    232 O           0.0393   -8.0109   25.0784 O.3     1  UNL1        0.0000
    233 O          -4.7513    2.0385   14.1754 O.2     1  UNL1        0.0000
    234 O           4.7775   -0.9363   14.2216 O.3     1  UNL1        0.0000
    235 O          -9.3769   -4.8967   25.0094 O.2     1  UNL1        0.0000
    236 O           3.9819   -3.6907   14.2510 O.2     1  UNL1        0.0000
    237 O          -7.1087   -3.1144   25.0907 O.3     1  UNL1        0.0000
    238 O          -0.1504   -0.4794   16.1300 O.3     1  UNL1        0.0000
    239 O          -4.8524   -7.4832   23.1111 O.3     1  UNL1        0.0000
    240 O           2.3037   -1.7045   13.1972 O.3     1  UNL1        0.0000
    241 O          -2.2640    1.3976   13.0305 O.3     1  UNL1        0.0000
    242 H          -1.0653   -5.7912   21.3714 H       1  UNL1        0.0000
    243 H          -4.9645  -11.4790   19.9188 H       1  UNL1        0.0000
    244 H          -0.2298    3.2907   18.6154 H       1  UNL1        0.0000
    245 H           0.0548   -4.0336   19.9658 H       1  UNL1        0.0000
    246 H          -4.8611   -3.8433   20.7680 H       1  UNL1        0.0000
    247 H          -8.4156   -8.9193   19.6845 H       1  UNL1        0.0000
    248 H          -3.5147   -5.6894   21.7339 H       1  UNL1        0.0000
    249 H          -3.7344   -2.0763   19.3893 H       1  UNL1        0.0000
    250 H           0.8525    1.0947   18.2239 H       1  UNL1        0.0000
    251 H         -12.7679    1.2873   18.7602 H      59  UNL59       0.0000
    252 C          -1.7760   -2.9538   19.6025 C.ar    1  UNL1        0.0000
    253 C          -3.0250   -4.9181   21.1407 C.ar    1  UNL1        0.0000
    254 C           1.4204    1.8995   18.6912 C.ar    1  UNL1        0.0000
    255 C          -6.6184  -10.0958   19.8683 C.2     1  UNL1        0.0000
    256 C          -3.1636   -2.8904   19.8311 C.ar    1  UNL1        0.0000
    257 C          -1.6413   -4.9768   20.9341 C.ar    1  UNL1        0.0000
    258 C           0.8065    3.1383   18.9134 C.ar    1  UNL1        0.0000
    259 C          -6.0006  -11.3354   19.6193 C.3     1  UNL1        0.0000
    260 C           2.7582    1.6908   19.0465 C.ar    1  UNL1        0.0000
    261 C          -7.9562   -9.8854   19.4856 C.3     1  UNL1        0.0000
    262 C          -1.0154   -3.9977   20.1596 C.ar    1  UNL1        0.0000
    263 C          -3.7863   -3.8768   20.5955 C.ar    1  UNL1        0.0000
    264 O           0.1049   -2.0965   18.4112 O.3     1  UNL1        0.0000
    265 O          -6.5155   -7.9704   20.9440 O.2     1  UNL1        0.0000
    266 O          -4.6941   -9.2938   21.0198 O.2     1  UNL1        0.0000
    267 O          -1.8582   -1.0049   18.2448 O.3     1  UNL1        0.0000
    268 N           1.3422    3.4116   38.1978 N.pl3   7  UNL7        0.0000
    269 N           1.8169    2.6322   40.1828 N.pl3   7  UNL7        0.0000
    270 C           2.0209    2.2165   38.0137 C.2     7  UNL7        0.0000
    271 C           2.3216    1.7314   39.2604 C.2     7  UNL7        0.0000
    272 C           3.1180    3.5817   42.0716 C.3     7  UNL7        0.0000
    273 C           0.8495    4.2962   37.1342 C.3     7  UNL7        0.0000
    274 C           1.2225    3.6406   39.5176 C.3     7  UNL7        0.0000
    275 C           2.0316    2.5958   41.6479 C.3     7  UNL7        0.0000
    276 H           2.2530    1.8205   37.0329 H       7  UNL7        0.0000
    277 H           2.8397    0.8301   39.5646 H       7  UNL7        0.0000
    278 H           4.0728    3.3524   41.5814 H       7  UNL7        0.0000
    279 H           1.6883    4.5802   36.4898 H       7  UNL7        0.0000
    280 H           2.8402    4.6157   41.8311 H       7  UNL7        0.0000
    281 H           0.0901    3.7574   36.5558 H       7  UNL7        0.0000
    282 H           3.2630    3.5134   43.1582 H       7  UNL7        0.0000
    283 H           2.3179    1.5648   41.8953 H       7  UNL7        0.0000
    284 H           0.4072    5.1852   37.5945 H       7  UNL7        0.0000
    285 H           0.7228    4.4896   39.9672 H       7  UNL7        0.0000
    286 H           1.0637    2.8012   42.1213 H       7  UNL7        0.0000
    287 TI        -12.1247  -11.9031   37.4356 Ti      1  UNL1        0.0000
    288 TI         -1.2943   -9.0219   28.0708 Ti      1  UNL1        0.0000
    289 TI         -8.0280  -15.8393   35.6156 Ti      1  UNL1        0.0000
    290 TI         -6.5169   -6.6772   29.8426 Ti      1  UNL1        0.0000
    291 TI         -7.5154   -4.9989   27.9382 Ti      1  UNL1        0.0000
    292 TI         -6.1398  -16.0937   37.5690 Ti      1  UNL1        0.0000
    293 TI        -11.1755  -13.6390   35.5441 Ti      1  UNL1        0.0000
    294 TI         -3.2821   -8.7193   29.9183 Ti      1  UNL1        0.0000
    295 H         -11.6229   -8.0060   37.2162 H       1  UNL1        0.0000
    296 H          -0.4855  -12.9279   28.3915 H       1  UNL1        0.0000
    297 H         -16.0846  -12.6597   37.0532 H       1  UNL1        0.0000
    298 H           2.0879   -7.0176   28.2715 H       1  UNL1        0.0000
    299 H          -5.1642  -20.1282   37.1831 H       1  UNL1        0.0000
    300 H         -11.5740   -5.5888   28.2603 H       1  UNL1        0.0000
    301 H          -7.0210   -6.6357   26.0651 H       1  UNL1        0.0000
    302 H          -3.1698   -9.2646   26.3709 H       1  UNL1        0.0000
    303 H          -5.6299  -16.7608   32.0579 H       1  UNL1        0.0000
    304 H          -8.2403   -4.8402   33.4616 H       1  UNL1        0.0000
    305 H         -15.2481  -10.2504   35.1882 H       1  UNL1        0.0000
    306 H           1.4605  -11.1062   30.3768 H       1  UNL1        0.0000
    307 H         -12.9470  -11.6978   31.8544 H       1  UNL1        0.0000
    308 H         -10.6155   -3.1710   30.2915 H       1  UNL1        0.0000
    309 H          -7.1232   -1.8960   28.7937 H       1  UNL1        0.0000
    310 H          -0.6433  -14.9468   29.5940 H      59  UNL59       0.0000
    311 H          -4.4242   -6.9970   28.5040 H       1  UNL1        0.0000
    312 H          -9.1087  -13.9909   36.9093 H       1  UNL1        0.0000
    313 H          -1.9051  -14.1588   35.9587 H       1  UNL1        0.0000
    314 H          -3.3862  -14.6279   36.7060 H       1  UNL1        0.0000
    315 H          -1.3310   -9.7252   34.8598 H       1  UNL1        0.0000
    316 H          -1.9007   -9.3666   33.2412 H       1  UNL1        0.0000
    317 H          -2.3939  -19.1136   35.7686 H       1  UNL1        0.0000
    318 H          -3.6731  -18.0130   36.2260 H       1  UNL1        0.0000
    319 C          -0.7162   -9.7631   30.9343 C.3     1  UNL1        0.0000
    320 C         -13.0853  -11.6417   34.5886 C.3     1  UNL1        0.0000
    321 C          -5.4475  -16.8500   34.6909 C.3     1  UNL1        0.0000
    322 C          -8.4530   -4.7067   30.8020 C.3     1  UNL1        0.0000
    323 C           0.1798  -10.3674   31.9295 C.ar    1  UNL1        0.0000
    324 C         -14.0172  -11.0167   33.6115 C.2     1  UNL1        0.0000
    325 C          -4.5073  -17.4644   33.7437 C.2     1  UNL1        0.0000
    326 C          -9.3428   -4.0599   31.8018 C.ar    1  UNL1        0.0000
    327 C          -0.0690  -10.2925   33.3359 C.ar    1  UNL1        0.0000
    328 C         -13.8008  -11.1367   32.2235 C.3     1  UNL1        0.0000
    329 C          -3.3779  -18.2247   34.1968 C.2     1  UNL1        0.0000
    330 C         -10.4375   -3.2869   31.3568 C.ar    1  UNL1        0.0000
    331 C          -9.0883   -4.2306   33.1566 C.ar    1  UNL1        0.0000
    332 C          -4.7551  -17.3322   32.3598 C.3     1  UNL1        0.0000
    333 C           1.3135  -11.0664   31.4538 C.ar    1  UNL1        0.0000
    334 C         -15.1173  -10.3243   34.1102 C.2     1  UNL1        0.0000
    335 C          -0.5044  -12.8489   26.2474 C.2     1  UNL1        0.0000
    336 C          -6.9742   -1.0573   26.2724 C.ar    1  UNL1        0.0000
    337 C           1.9800   -7.0858   26.1214 C.ar    1  UNL1        0.0000
    338 C         -11.3783   -5.5433   26.1020 C.2     1  UNL1        0.0000
    339 C          -5.7701   -9.0204   31.8072 C.3     1  UNL1        0.0000
    340 C         -10.5262  -16.1147   33.7253 C.2     1  UNL1        0.0000
    341 C          -0.6403  -11.3940   26.2242 C.2     1  UNL1        0.0000
    342 C          -7.0669   -2.4908   26.2349 C.3     1  UNL1        0.0000
    343 C           0.6822   -7.7026   26.1683 C.3     1  UNL1        0.0000
    344 C          -9.9760   -5.1290   26.1265 C.2     1  UNL1        0.0000
    345 C          -0.4651  -13.5180   27.4771 C.3     1  UNL1        0.0000
    346 C         -11.6119   -7.4176   38.1301 C.ar    1  UNL1        0.0000
    347 C           2.6353   -6.8110   27.3554 C.ar    1  UNL1        0.0000
    348 C         -16.6461  -12.8391   37.9685 C.3     1  UNL1        0.0000
    349 C          -1.9604  -13.8835   37.9830 C.ar    1  UNL1        0.0000
    350 C         -12.0755   -5.7737   27.3145 C.3     1  UNL1        0.0000
    351 C          -5.1226  -20.6554   38.1321 C.3     1  UNL1        0.0000
    352 C          -6.9604   -0.3061   27.5017 C.ar    1  UNL1        0.0000
    353 N          -6.9053   -0.9049   28.7398 N.pl3   1  UNL1        0.0000
    354 N          -2.5394  -14.0663   36.7440 N.pl3   1  UNL1        0.0000
    355 N          -1.1498   -9.6463   33.8672 N.pl3   1  UNL1        0.0000
    356 N          -3.0469  -18.3829   35.5142 N.pl3   1  UNL1        0.0000
    357 O          -1.8925   -9.3580   31.3001 O.3     1  UNL1        0.0000
    358 O         -12.3163  -12.5926   34.1903 O.3     1  UNL1        0.0000
    359 O          -5.0661  -16.7255   35.9120 O.3     1  UNL1        0.0000
    360 O          -8.5188   -4.2770   29.6024 O.3     1  UNL1        0.0000
    361 O          -7.6825   -5.6639   31.1884 O.3     1  UNL1        0.0000
    362 O          -6.6180  -16.4816   34.2854 O.3     1  UNL1        0.0000
    363 O          -0.3043   -9.6824   29.7226 O.3     1  UNL1        0.0000
    364 O         -13.1273  -11.2055   35.7883 O.3     1  UNL1        0.0000
    365 O          -2.9769   -9.9373   28.7236 O.3     1  UNL1        0.0000
    366 O         -10.6231  -12.0786   36.2887 O.3     1  UNL1        0.0000
    367 O          -2.0381   -7.6500   29.1736 O.3     1  UNL1        0.0000
    368 O         -12.3753  -13.8033   36.7813 O.3     1  UNL1        0.0000
    369 O          -7.7687  -17.0113   36.8761 O.3     1  UNL1        0.0000
    370 O          -6.0003   -5.1159   29.1041 O.3     1  UNL1        0.0000
    371 O          -6.8148  -14.7498   36.4119 O.3     1  UNL1        0.0000
    372 O          -7.7065   -6.8730   28.5867 O.3     1  UNL1        0.0000
    373 O          -5.3975  -17.8655   38.1781 O.2     1  UNL1        0.0000
    374 O          -7.1500   -3.1922   27.3301 O.3     1  UNL1        0.0000
    375 O          -4.5954  -15.0773   38.1730 O.3     1  UNL1        0.0000
    376 O          -9.3860   -5.0280   27.2700 O.2     1  UNL1        0.0000
    377 O           0.1428   -8.0028   27.3162 O.3     1  UNL1        0.0000
    378 O         -14.0115  -11.9632   38.1041 O.2     1  UNL1        0.0000
    379 O          -0.6527  -10.7571   27.3456 O.2     1  UNL1        0.0000
    380 O         -11.7433  -10.1808   38.1853 O.3     1  UNL1        0.0000
    381 O          -4.7851   -7.5458   29.2246 O.3     1  UNL1        0.0000
    382 O          -9.4870  -14.5496   36.2057 O.3     1  UNL1        0.0000
    383 O          -2.3310   -8.7709   26.2918 O.3     1  UNL1        0.0000
    384 O          -6.8986   -5.6689   26.1251 O.3     1  UNL1        0.0000
    385 H          -5.7000  -12.8577   34.4660 H       1  UNL1        0.0000
    386 H          -9.5992  -18.5455   33.0134 H       1  UNL1        0.0000
    387 H          -4.8644   -3.7758   31.7101 H       1  UNL1        0.0000
    388 H          -4.5799  -11.1001   33.0604 H       1  UNL1        0.0000
    389 H          -9.4957  -10.9097   33.8626 H       1  UNL1        0.0000
    390 H         -13.0502  -15.9858   32.7791 H       1  UNL1        0.0000
    391 H          -8.1494  -12.7559   34.8285 H       1  UNL1        0.0000
    392 H          -8.3690   -9.1427   32.4840 H       1  UNL1        0.0000
    393 H          -3.7822   -5.9718   31.3185 H       1  UNL1        0.0000
    394 H         -17.4025   -5.7791   31.8548 H      59  UNL59       0.0000
    395 C          -6.4107  -10.0202   32.6972 C.ar    1  UNL1        0.0000
    396 C          -7.6597  -11.9846   34.2353 C.ar    1  UNL1        0.0000
    397 C          -3.2142   -5.1669   31.7859 C.ar    1  UNL1        0.0000
    398 C         -11.2530  -17.1622   32.9629 C.2     1  UNL1        0.0000
    399 C          -7.7983   -9.9568   32.9257 C.ar    1  UNL1        0.0000
    400 C          -6.2760  -12.0433   34.0287 C.ar    1  UNL1        0.0000
    401 C          -3.8281   -3.9282   32.0080 C.ar    1  UNL1        0.0000
    402 C         -10.6353  -18.4019   32.7139 C.3     1  UNL1        0.0000
    403 C          -1.8764   -5.3757   32.1412 C.ar    1  UNL1        0.0000
    404 C         -12.5908  -16.9519   32.5802 C.3     1  UNL1        0.0000
    405 C          -5.6500  -11.0642   33.2542 C.ar    1  UNL1        0.0000
    406 C          -8.4210  -10.9433   33.6901 C.ar    1  UNL1        0.0000
    407 O          -4.5298   -9.1629   31.5058 O.3     1  UNL1        0.0000
    408 O         -11.1501  -15.0368   34.0386 O.2     1  UNL1        0.0000
    409 O          -9.3288  -16.3602   34.1144 O.2     1  UNL1        0.0000
    410 O          -6.4928   -8.0713   31.3394 O.3     1  UNL1        0.0000
    411 N          -3.2925   -3.6548   51.2924 N.pl3  10  UNL10       0.0000
    412 N          -2.8178   -4.4343   53.2774 N.pl3  10  UNL10       0.0000
    413 C          -2.6137   -4.8499   51.1084 C.2    10  UNL10       0.0000
    414 C          -2.3131   -5.3350   52.3550 C.2    10  UNL10       0.0000
    415 C          -1.5166   -3.4848   55.1663 C.3    10  UNL10       0.0000
    416 C          -3.7851   -2.7702   50.2288 C.3    10  UNL10       0.0000
    417 C          -3.4122   -3.4259   52.6122 C.3    10  UNL10       0.0000
    418 C          -2.6031   -4.4706   54.7425 C.3    10  UNL10       0.0000
    419 H          -2.3816   -5.2460   50.1275 H      10  UNL10       0.0000
    420 H          -1.7949   -6.2363   52.6592 H      10  UNL10       0.0000
    421 H          -0.5619   -3.7141   54.6760 H      10  UNL10       0.0000
    422 H          -2.9463   -2.4862   49.5844 H      10  UNL10       0.0000
    423 H          -1.7945   -2.4508   54.9257 H      10  UNL10       0.0000
    424 H          -4.5445   -3.3090   49.6504 H      10  UNL10       0.0000
    425 H          -1.3717   -3.5531   56.2528 H      10  UNL10       0.0000
    426 H          -2.3168   -5.5017   54.9899 H      10  UNL10       0.0000
    427 H          -4.2274   -1.8812   50.6891 H      10  UNL10       0.0000
    428 H          -3.9119   -2.5769   53.0618 H      10  UNL10       0.0000
    429 H          -3.5709   -4.2653   55.2159 H      10  UNL10       0.0000
    430 TI        -16.7594  -18.9696   50.5302 Ti     11  UNL11       0.0000
    431 TI         -5.9289  -16.0883   41.1654 Ti      1  UNL1        0.0000
    432 TI        -12.6627  -22.9057   48.7102 Ti     11  UNL11       0.0000
    433 TI        -11.1515  -13.7436   42.9372 Ti      1  UNL1        0.0000
    434 TI        -12.1501  -12.0653   41.0328 Ti      1  UNL1        0.0000
    435 TI        -10.7745  -23.1601   50.6636 Ti     11  UNL11       0.0000
    436 TI        -15.8102  -20.7054   48.6387 Ti     11  UNL11       0.0000
    437 TI         -7.9167  -15.7858   43.0129 Ti      1  UNL1        0.0000
    438 H         -16.2575  -15.0725   50.3108 H       1  UNL1        0.0000
    439 H          -5.1201  -19.9944   41.4861 H       1  UNL1        0.0000
    440 H         -20.7193  -19.7262   50.1478 H       2  UNL2        0.0000
    441 H          -2.5468  -14.0840   41.3661 H       1  UNL1        0.0000
    442 H          -9.7989  -27.1946   50.2777 H       4  UNL4        0.0000
    443 H         -16.2086  -12.6552   41.3549 H       1  UNL1        0.0000
    444 H         -11.6556  -13.7021   39.1597 H       1  UNL1        0.0000
    445 H          -7.8044  -16.3310   39.4655 H       1  UNL1        0.0000
    446 H         -10.2646  -23.8272   45.1525 H      11  UNL11       0.0000
    447 H         -12.8749  -11.9066   46.5562 H       1  UNL1        0.0000
    448 H         -19.8828  -17.3168   48.2828 H      11  UNL11       0.0000
    449 H          -3.1741  -18.1727   43.4714 H       1  UNL1        0.0000
    450 H         -17.5817  -18.7643   44.9490 H      11  UNL11       0.0000
    451 H         -15.2501  -10.2374   43.3861 H       1  UNL1        0.0000
    452 H         -11.7578   -8.9625   41.8883 H       1  UNL1        0.0000
    453 H          -5.2780  -22.0132   42.6886 H      59  UNL59       0.0000
    454 H          -9.0589  -14.0635   41.5986 H       1  UNL1        0.0000
    455 H         -13.7434  -21.0574   50.0039 H      11  UNL11       0.0000
    456 H          -6.5397  -21.2252   49.0533 H       3  UNL3        0.0000
    457 H          -8.0209  -21.6943   49.8006 H       3  UNL3        0.0000
    458 H          -5.9656  -16.7916   47.9544 H       1  UNL1        0.0000
    459 H          -6.5353  -16.4330   46.3358 H       1  UNL1        0.0000
    460 H          -7.0286  -26.1801   48.8632 H      11  UNL11       0.0000
    461 H          -8.3077  -25.0795   49.3206 H      11  UNL11       0.0000
    462 C          -5.3509  -16.8296   44.0289 C.3     1  UNL1        0.0000
    463 C         -17.7199  -18.7082   47.6832 C.3    11  UNL11       0.0000
    464 C         -10.0822  -23.9164   47.7855 C.3    11  UNL11       0.0000
    465 C         -13.0876  -11.7731   43.8966 C.3     1  UNL1        0.0000
    466 C          -4.4548  -17.4339   45.0241 C.ar    1  UNL1        0.0000
    467 C         -18.6518  -18.0831   46.7061 C.2    11  UNL11       0.0000
    468 C          -9.1420  -24.5308   46.8383 C.2    11  UNL11       0.0000
    469 C         -13.9774  -11.1263   44.8964 C.ar    1  UNL1        0.0000
    470 C          -4.7036  -17.3590   46.4306 C.ar    1  UNL1        0.0000
    471 C         -18.4354  -18.2031   45.3181 C.3    11  UNL11       0.0000
    472 C          -8.0125  -25.2911   47.2914 C.2    11  UNL11       0.0000
    473 C         -15.0722  -10.3533   44.4514 C.ar    1  UNL1        0.0000
    474 C         -13.7229  -11.2971   46.2513 C.ar    1  UNL1        0.0000
    475 C          -9.3897  -24.3987   45.4544 C.3    11  UNL11       0.0000
    476 C          -3.3212  -18.1329   44.5484 C.ar    1  UNL1        0.0000
    477 C         -19.7520  -17.3907   47.2048 C.2    11  UNL11       0.0000
    478 C          -5.1391  -19.9153   39.3420 C.2     1  UNL1        0.0000
    479 C         -11.6088   -8.1237   39.3670 C.ar    1  UNL1        0.0000
    480 C          -2.6547  -14.1522   39.2160 C.ar    1  UNL1        0.0000
    481 C         -16.0130  -12.6098   39.1966 C.2     1  UNL1        0.0000
    482 C         -10.4048  -16.0868   44.9018 C.3     1  UNL1        0.0000
    483 C         -15.1609  -23.1812   46.8199 C.2    11  UNL11       0.0000
    484 C          -5.2749  -18.4605   39.3188 C.2     1  UNL1        0.0000
    485 C         -11.7016   -9.5572   39.3295 C.3     1  UNL1        0.0000
    486 C          -3.9525  -14.7690   39.2629 C.3     1  UNL1        0.0000
    487 C         -14.6107  -12.1954   39.2211 C.2     1  UNL1        0.0000
    488 C          -5.0997  -20.5844   40.5717 C.3     1  UNL1        0.0000
    489 C         -16.2466  -14.4841   51.2247 C.2     1  UNL1        0.0000
    490 C          -1.9994  -13.8774   40.4500 C.ar    1  UNL1        0.0000
    491 C         -21.2808  -19.9056   51.0631 C.3    13  UNL13       0.0000
    492 C          -6.5950  -20.9499   51.0776 C.2     3  UNL3        0.0000
    493 C         -16.7102  -12.8402   40.4091 C.3     1  UNL1        0.0000
    494 C          -9.7572  -27.7218   51.2267 C.3    14  UNL14       0.0000
    495 C         -11.5950   -7.3725   40.5963 C.ar    1  UNL1        0.0000
    496 N         -11.5400   -7.9714   41.8345 N.pl3   1  UNL1        0.0000
    497 N          -7.1740  -21.1328   49.8387 N.pl3   3  UNL3        0.0000
    498 N          -5.7845  -16.7127   46.9618 N.pl3   1  UNL1        0.0000
    499 N          -7.6815  -25.4493   48.6088 N.pl3  11  UNL11       0.0000
    500 O          -6.5272  -16.4245   44.3947 O.3     1  UNL1        0.0000
    501 O         -16.9509  -19.6590   47.2849 O.3    11  UNL11       0.0000
    502 O          -9.7007  -23.7920   49.0066 O.3    11  UNL11       0.0000
    503 O         -13.1535  -11.3434   42.6970 O.3     1  UNL1        0.0000
    504 O         -12.3172  -12.7303   44.2830 O.3     1  UNL1        0.0000
    505 O         -11.2526  -23.5480   47.3800 O.3    11  UNL11       0.0000
    506 O          -4.9390  -16.7488   42.8172 O.3     1  UNL1        0.0000
    507 O         -17.7619  -18.2719   48.8829 O.3    11  UNL11       0.0000
    508 O          -7.6115  -17.0037   41.8182 O.3     1  UNL1        0.0000
    509 O         -15.2577  -19.1451   49.3833 O.3    11  UNL11       0.0000
    510 O          -6.6727  -14.7164   42.2682 O.3     1  UNL1        0.0000
    511 O         -17.0099  -20.8698   49.8759 O.3    11  UNL11       0.0000
    512 O         -12.4034  -24.0777   49.9707 O.3    11  UNL11       0.0000
    513 O         -10.6350  -12.1823   42.1987 O.3     1  UNL1        0.0000
    514 O         -11.4494  -21.8162   49.5065 O.3    11  UNL11       0.0000
    515 O         -12.3412  -13.9394   41.6813 O.3     1  UNL1        0.0000
    516 O         -10.0322  -24.9319   51.2727 O.3    11  UNL11       0.0000
    517 O         -11.7847  -10.2587   40.4247 O.3     1  UNL1        0.0000
    518 O          -9.2300  -22.1438   51.2676 O.3    11  UNL11       0.0000
    519 O         -14.0206  -12.0944   40.3646 O.2     1  UNL1        0.0000
    520 O          -4.4918  -15.0692   40.4109 O.3     1  UNL1        0.0000
    521 O         -18.6462  -19.0296   51.1987 O.3    11  UNL11       0.0000
    522 O          -5.2874  -17.8235   40.4403 O.2     1  UNL1        0.0000
    523 O         -16.3780  -17.2473   51.2799 O.3    11  UNL11       0.0000
    524 O          -9.4197  -14.6122   42.3193 O.3     1  UNL1        0.0000
    525 O         -14.1216  -21.6160   49.3003 O.3    11  UNL11       0.0000
    526 O          -6.9656  -15.8374   39.3865 O.3     1  UNL1        0.0000
    527 O         -11.5333  -12.7353   39.2197 O.3     1  UNL1        0.0000
    528 H         -10.3346  -19.9241   47.5606 H       1  UNL1        0.0000
    529 H         -14.2338  -25.6119   46.1080 H      11  UNL11       0.0000
    530 H          -9.4991  -10.8422   44.8047 H       1  UNL1        0.0000
    531 H          -9.2145  -18.1665   46.1550 H       1  UNL1        0.0000
    532 H         -14.1304  -17.9761   46.9573 H       1  UNL1        0.0000
    533 H         -17.6849  -23.0522   45.8737 H      11  UNL11       0.0000
    534 H         -12.7840  -19.8223   47.9231 H       1  UNL1        0.0000
    535 H         -13.0037  -16.2092   45.5786 H       1  UNL1        0.0000
    536 H          -8.4168  -13.0382   44.4131 H       1  UNL1        0.0000
    537 H         -22.0372  -12.8455   44.9494 H      59  UNL59       0.0000
    538 C         -11.0453  -17.0866   45.7918 C.ar    1  UNL1        0.0000
    539 C         -12.2943  -19.0510   47.3299 C.ar    1  UNL1        0.0000
    540 C          -7.8488  -12.2334   44.8805 C.ar    1  UNL1        0.0000
    541 C         -15.8877  -24.2286   46.0575 C.2    11  UNL11       0.0000
    542 C         -12.4329  -17.0233   46.0203 C.ar    1  UNL1        0.0000
    543 C         -10.9106  -19.1097   47.1233 C.ar    1  UNL1        0.0000
    544 C          -8.4628  -10.9946   45.1026 C.ar    1  UNL1        0.0000
    545 C         -15.2699  -25.4683   45.8085 C.3    11  UNL11       0.0000
    546 C          -6.5111  -12.4421   45.2358 C.ar    1  UNL1        0.0000
    547 C         -17.2255  -24.0183   45.6748 C.3    11  UNL11       0.0000
    548 C         -10.2847  -18.1306   46.3489 C.ar    1  UNL1        0.0000
    549 C         -13.0556  -18.0097   46.7847 C.ar    1  UNL1        0.0000
    550 O          -9.1644  -16.2294   44.6004 O.3     1  UNL1        0.0000
    551 O         -15.7848  -22.1032   47.1332 O.2    11  UNL11       0.0000
    552 O         -13.9634  -23.4267   47.2090 O.2    11  UNL11       0.0000
    553 O         -11.1275  -15.1377   44.4340 O.3     1  UNL1        0.0000
    554 N          -7.9271  -10.7213   64.3870 N.pl3  16  UNL16       0.0000
    555 N          -7.4524  -11.5007   66.3720 N.pl3  16  UNL16       0.0000
    556 C          -7.2484  -11.9164   64.2030 C.2    16  UNL16       0.0000
    557 C          -6.9477  -12.4014   65.4496 C.2    16  UNL16       0.0000
    558 C          -6.1513  -10.5512   68.2609 C.3    16  UNL16       0.0000
    559 C          -8.4198   -9.8367   63.3235 C.3    16  UNL16       0.0000
    560 C          -8.0468  -10.4923   65.7068 C.3    16  UNL16       0.0000
    561 C          -7.2377  -11.5370   67.8371 C.3    16  UNL16       0.0000
    562 H          -7.0163  -12.3124   63.2221 H      16  UNL16       0.0000
    563 H          -6.4296  -13.3027   65.7538 H      16  UNL16       0.0000
    564 H          -5.1965  -10.7805   67.7706 H      16  UNL16       0.0000
    565 H          -7.5810   -9.5527   62.6790 H      16  UNL16       0.0000
    566 H          -6.4291   -9.5172   68.0203 H      16  UNL16       0.0000
    567 H          -9.1792  -10.3755   62.7450 H      16  UNL16       0.0000
    568 H          -6.0063  -10.6195   69.3474 H      16  UNL16       0.0000
    569 H          -6.9514  -12.5681   68.0845 H      16  UNL16       0.0000
    570 H          -8.8621   -8.9477   63.7837 H      16  UNL16       0.0000
    571 H          -8.5465   -9.6433   66.1564 H      16  UNL16       0.0000
    572 H          -8.2056  -11.3317   68.3105 H      16  UNL16       0.0000
    573 TI         -9.3725   16.8423   11.1899 Ti      1  UNL1        0.0000
    574 TI          1.4580   19.7235    1.8251 Ti      1  UNL1        0.0000
    575 TI         -5.2758   12.9061    9.3699 Ti      1  UNL1        0.0000
    576 TI         -3.7646   22.0682    3.5969 Ti      1  UNL1        0.0000
    577 TI         -4.7632   23.7465    1.6925 Ti      1  UNL1        0.0000
    578 TI         -3.3876   12.6517   11.3233 Ti      1  UNL1        0.0000
    579 TI         -8.4233   15.1064    9.2984 Ti      1  UNL1        0.0000
    580 TI         -0.5298   20.0260    3.6725 Ti      1  UNL1        0.0000
    581 H          -8.8706   20.7394   10.9704 H       1  UNL1        0.0000
    582 H           2.2668   15.8174    2.1458 H       1  UNL1        0.0000
    583 H         -13.3324   16.0856   10.8074 H       1  UNL1        0.0000
    584 H           4.8402   21.7278    2.0257 H       1  UNL1        0.0000
    585 H          -2.4120    8.6172   10.9373 H       1  UNL1        0.0000
    586 H          -8.8217   23.1566    2.0145 H       1  UNL1        0.0000
    587 H          -4.2687   22.1097   -0.1806 H       1  UNL1        0.0000
    588 H          -0.4175   19.4808    0.1251 H       1  UNL1        0.0000
    589 H          -2.8777   11.9846    5.8122 H       1  UNL1        0.0000
    590 H          -5.4880   23.9052    7.2158 H       1  UNL1        0.0000
    591 H         -12.4959   18.4950    8.9425 H       1  UNL1        0.0000
    592 H           4.2128   17.6392    4.1311 H       1  UNL1        0.0000
    593 H         -10.1948   17.0476    5.6087 H       1  UNL1        0.0000
    594 H          -7.8632   25.5744    4.0457 H       1  UNL1        0.0000
    595 H          -4.3709   26.8494    2.5479 H       1  UNL1        0.0000
    596 H           2.1090   13.7986    3.3482 H       1  UNL1        0.0000
    597 H          -1.6720   21.7483    2.2582 H       1  UNL1        0.0000
    598 H          -6.3565   14.7545   10.6635 H       1  UNL1        0.0000
    599 H           0.8472   14.5866    9.7129 H       1  UNL1        0.0000
    600 H          -0.6340   14.1175   10.4603 H       1  UNL1        0.0000
    601 H           1.4213   19.0202    8.6140 H       1  UNL1        0.0000
    602 H           0.8516   19.3788    6.9955 H       1  UNL1        0.0000
    603 H           0.3584    9.6318    9.5229 H       1  UNL1        0.0000
    604 H          -0.9208   10.7323    9.9803 H       1  UNL1        0.0000
    605 C           2.0360   18.9822    4.6886 C.3     1  UNL1        0.0000
    606 C         -10.3330   17.1037    8.3428 C.3     1  UNL1        0.0000
    607 C          -2.6953   11.8954    8.4452 C.3     1  UNL1        0.0000
    608 C          -5.7007   24.0387    4.5562 C.3     1  UNL1        0.0000
    609 C           2.9321   18.3779    5.6838 C.ar    1  UNL1        0.0000
    610 C         -11.2649   17.7287    7.3658 C.2     1  UNL1        0.0000
    611 C          -1.7551   11.2810    7.4980 C.ar    1  UNL1        0.0000
    612 C          -6.5905   24.6855    5.5560 C.ar    1  UNL1        0.0000
    613 C           2.6833   18.4528    7.0902 C.ar    1  UNL1        0.0000
    614 C         -11.0485   17.6087    5.9778 C.3     1  UNL1        0.0000
    615 C          -0.6256   10.5207    7.9511 C.ar    1  UNL1        0.0000
    616 C          -7.6853   25.4585    5.1111 C.ar    1  UNL1        0.0000
    617 C          -6.3360   24.5148    6.9109 C.ar    1  UNL1        0.0000
    618 C          -2.0028   11.4132    6.1141 C.ar    1  UNL1        0.0000
    619 C           4.0657   17.6789    5.2081 C.ar    1  UNL1        0.0000
    620 C         -12.3651   18.4211    7.8645 C.2     1  UNL1        0.0000
    621 C           2.2478   15.8965    0.0017 C.2     1  UNL1        0.0000
    622 C          -4.2219   27.6881    0.0267 C.2     1  UNL1        0.0000
    623 C           4.7323   21.6596   -0.1243 C.2     1  UNL1        0.0000
    624 C          -8.6261   23.2021   -0.1437 C.2     1  UNL1        0.0000
    625 C          -3.0179   19.7250    5.5615 C.3     1  UNL1        0.0000
    626 C          -7.7740   12.6307    7.4796 C.2     1  UNL1        0.0000
    627 C           2.1120   17.3514   -0.0215 C.2     1  UNL1        0.0000
    628 C          -4.3147   26.2546   -0.0108 C.2     1  UNL1        0.0000
    629 C           3.4344   21.0428   -0.0775 C.2     1  UNL1        0.0000
    630 C          -7.2238   23.6164   -0.1193 C.2     1  UNL1        0.0000
    631 C           2.2872   15.2274    1.2313 C.2     1  UNL1        0.0000
    632 C          -8.8597   21.3278   11.8843 C.ar    1  UNL1        0.0000
    633 C           5.3876   21.9344    1.1096 C.2     1  UNL1        0.0000
    634 C         -13.8939   15.9063   11.7228 C.3     1  UNL1        0.0000
    635 C           0.7919   14.8619   11.7373 C.ar    1  UNL1        0.0000
    636 C          -9.3233   22.9716    1.0687 C.3     1  UNL1        0.0000
    637 C          -2.3703    8.0900   11.8864 C.ar    1  UNL1        0.0000
    638 C          -4.2081   28.4393    1.2559 C.2     1  UNL1        0.0000
    639 N          -4.1531   27.8404    2.4941 N.pl3   1  UNL1        0.0000
    640 N           0.2129   14.6791   10.4983 N.pl3   1  UNL1        0.0000
    641 N           1.6024   19.0991    7.6215 N.pl3   1  UNL1        0.0000
    642 N          -0.2946   10.3625    9.2684 N.pl3   1  UNL1        0.0000
    643 O           0.8597   19.3873    5.0544 O.3     1  UNL1        0.0000
    644 O          -9.5640   16.1528    7.9446 O.3     1  UNL1        0.0000
    645 O          -2.3138   12.0199    9.6663 O.3     1  UNL1        0.0000
    646 O          -5.7666   24.4684    3.3566 O.3     1  UNL1        0.0000
    647 O          -4.9302   23.0815    4.9427 O.3     1  UNL1        0.0000
    648 O          -3.8657   12.2638    8.0397 O.3     1  UNL1        0.0000
    649 O           2.4479   19.0630    3.4769 O.3     1  UNL1        0.0000
    650 O         -10.3750   17.5399    9.5426 O.3     1  UNL1        0.0000
    651 O          -0.2246   18.8081    2.4778 O.3     1  UNL1        0.0000
    652 O          -7.8708   16.6667   10.0429 O.3     1  UNL1        0.0000
    653 O           0.7142   21.0954    2.9278 O.3     1  UNL1        0.0000
    654 O          -9.6230   14.9421   10.5356 O.3     1  UNL1        0.0000
    655 O          -5.0165   11.7341   10.6303 O.3     1  UNL1        0.0000
    656 O          -3.2480   23.6295    2.8584 O.3     1  UNL1        0.0000
    657 O          -4.0625   13.9956   10.1661 O.3     1  UNL1        0.0000
    658 O          -4.9543   21.8724    2.3410 O.3     1  UNL1        0.0000
    659 O          -2.6453   10.8799   11.9324 O.3     1  UNL1        0.0000
    660 O          -4.3978   25.5531    1.0844 O.2     1  UNL1        0.0000
    661 O          -1.8431   13.6681   11.9272 O.3     1  UNL1        0.0000
    662 O          -6.6337   23.7174    1.0243 O.2     1  UNL1        0.0000
    663 O           2.8951   20.7426    1.0705 O.2     1  UNL1        0.0000
    664 O         -11.2593   16.7822   11.8583 O.2     1  UNL1        0.0000
    665 O           2.0995   17.9883    1.0999 O.2     1  UNL1        0.0000
    666 O          -8.9911   18.5646   11.9396 O.3     1  UNL1        0.0000
    667 O          -2.0328   21.1996    2.9789 O.3     1  UNL1        0.0000
    668 O          -6.7347   14.1958    9.9599 O.3     1  UNL1        0.0000
    669 O           0.4213   19.9745    0.0461 O.3     1  UNL1        0.0000
    670 O          -4.1463   23.0765   -0.1206 O.3     1  UNL1        0.0000
    671 H          -2.9477   15.8877    8.2203 H       1  UNL1        0.0000
    672 H          -6.8469   10.1999    6.7677 H       1  UNL1        0.0000
    673 H          -2.1122   24.9696    5.4643 H       1  UNL1        0.0000
    674 H          -1.8276   17.6453    6.8147 H       1  UNL1        0.0000
    675 H          -6.7435   17.8357    7.6169 H       1  UNL1        0.0000
    676 H         -10.2980   12.7596    6.5334 H       1  UNL1        0.0000
    677 H          -5.3971   15.9895    8.5828 H       1  UNL1        0.0000
    678 H          -5.6168   19.6026    6.2382 H       1  UNL1        0.0000
    679 H          -1.0299   22.7736    5.0727 H       1  UNL1        0.0000
    680 H         -14.6503   22.9663    5.6091 H      59  UNL59       0.0000
    681 C          -3.6584   18.7252    6.4514 C.ar    1  UNL1        0.0000
    682 C          -4.9074   16.7608    7.9896 C.ar    1  UNL1        0.0000
    683 C          -0.4619   23.5785    5.5401 C.ar    1  UNL1        0.0000
    684 C          -8.5008   11.5832    6.7171 C.2     1  UNL1        0.0000
    685 C          -5.0460   18.7885    6.6800 C.ar    1  UNL1        0.0000
    686 C          -3.5237   16.7021    7.7829 C.ar    1  UNL1        0.0000
    687 C          -1.0759   24.8172    5.7623 C.ar    1  UNL1        0.0000
    688 C          -7.8830   10.3435    6.4681 C.3     1  UNL1        0.0000
    689 C           0.8758   23.3697    5.8954 C.ar    1  UNL1        0.0000
    690 C          -9.8386   11.7935    6.3345 C.3     1  UNL1        0.0000
    691 C          -2.8977   17.6812    7.0085 C.ar    1  UNL1        0.0000
    692 C          -5.6687   17.8021    7.4444 C.ar    1  UNL1        0.0000
    693 O          -1.7775   19.5825    5.2601 O.3     1  UNL1        0.0000
    694 O          -8.3979   13.7086    7.7929 O.2     1  UNL1        0.0000
    695 O          -6.5765   12.3852    7.8687 O.2     1  UNL1        0.0000
    696 O          -3.7406   20.6741    5.0937 O.3     1  UNL1        0.0000
    697 N          -0.5402   25.0905   25.0466 N.pl3  18  UNL18       0.0000
    698 N          -0.0655   24.3111   27.0317 N.pl3  18  UNL18       0.0000
    699 C           0.1386   23.8954   24.8626 C.2    18  UNL18       0.0000
    700 C           0.4392   23.4104   26.1093 C.2    18  UNL18       0.0000
    701 C           1.2356   25.2606   28.9205 C.3    18  UNL18       0.0000
    702 C          -1.0329   25.9752   23.9831 C.3    18  UNL18       0.0000
    703 C          -0.6599   25.3195   26.3665 C.3    18  UNL18       0.0000
    704 C           0.1492   24.2748   28.4967 C.3    18  UNL18       0.0000
    705 H           0.3706   23.4994   23.8818 H      18  UNL18       0.0000
    706 H           0.9573   22.5091   26.4135 H      18  UNL18       0.0000
    707 H           2.1904   25.0313   28.4303 H      18  UNL18       0.0000
    708 H          -0.1941   26.2591   23.3387 H      18  UNL18       0.0000
    709 H           0.9578   26.2946   28.6800 H      18  UNL18       0.0000
    710 H          -1.7923   25.4364   23.4047 H      18  UNL18       0.0000
    711 H           1.3806   25.1923   30.0070 H      18  UNL18       0.0000
    712 H           0.4355   23.2437   28.7442 H      18  UNL18       0.0000
    713 H          -1.4752   26.8642   24.4433 H      18  UNL18       0.0000
    714 H          -1.1596   26.1685   26.8161 H      18  UNL18       0.0000
    715 H          -0.8186   24.4801   28.9702 H      18  UNL18       0.0000
    716 TI        -14.0071    9.7758   24.2845 Ti      1  UNL1        0.0000
    717 TI         -3.1766   12.6570   14.9197 Ti      1  UNL1        0.0000
    718 TI         -9.9104    5.8396   22.4645 Ti      1  UNL1        0.0000
    719 TI         -8.3992   15.0018   16.6915 Ti      1  UNL1        0.0000
    720 TI         -9.3978   16.6801   14.7871 Ti      1  UNL1        0.0000
    721 TI         -8.0222    5.5853   24.4179 Ti      1  UNL1        0.0000
    722 TI        -13.0579    8.0399   22.3930 Ti      1  UNL1        0.0000
    723 TI         -5.1645   12.9596   16.7671 Ti      1  UNL1        0.0000
    724 H         -13.5052   13.6729   24.0650 H       1  UNL1        0.0000
    725 H          -2.3679    8.7510   15.2404 H       1  UNL1        0.0000
    726 H         -17.9670    9.0192   23.9020 H       1  UNL1        0.0000
    727 H           0.2055   14.6613   15.1203 H       1  UNL1        0.0000
    728 H          -7.0466    1.5508   24.0320 H       1  UNL1        0.0000
    729 H         -13.4563   16.0902   15.1091 H       1  UNL1        0.0000
    730 H          -8.9034   15.0433   12.9140 H       1  UNL1        0.0000
    731 H          -5.0522   12.4144   13.2197 H       1  UNL1        0.0000
    732 H          -7.5123    4.9182   18.9068 H       1  UNL1        0.0000
    733 H         -10.1227   16.8388   20.3104 H       1  UNL1        0.0000
    734 H         -17.1305   11.4286   22.0371 H       1  UNL1        0.0000
    735 H          -0.4219   10.5727   17.2257 H       1  UNL1        0.0000
    736 H         -14.8294    9.9811   18.7033 H       1  UNL1        0.0000
    737 H         -12.4979   18.5079   17.1403 H       1  UNL1        0.0000
    738 H          -9.0056   19.7829   15.6426 H       1  UNL1        0.0000
    739 H          -2.5257    6.7322   16.4429 H       1  UNL1        0.0000
    740 H          -6.3066   14.6819   15.3528 H       1  UNL1        0.0000
    741 H         -10.9911    7.6880   23.7581 H       1  UNL1        0.0000
    742 H          -3.7875    7.5201   22.8075 H       1  UNL1        0.0000
    743 H          -5.2686    7.0511   23.5549 H       1  UNL1        0.0000
    744 H          -3.2134   11.9538   21.7086 H       1  UNL1        0.0000
    745 H          -3.7831   12.3124   20.0901 H       1  UNL1        0.0000
    746 H          -4.2763    2.5653   22.6175 H       1  UNL1        0.0000
    747 H          -5.5554    3.6659   23.0749 H       1  UNL1        0.0000
    748 C          -2.5986   11.9158   17.7832 C.3     1  UNL1        0.0000
    749 C         -14.9677   10.0372   21.4375 C.3     1  UNL1        0.0000
    750 C          -7.3299    4.8289   21.5398 C.3     1  UNL1        0.0000
    751 C         -10.3354   16.9723   17.6508 C.3     1  UNL1        0.0000
    752 C          -1.7026   11.3115   18.7784 C.ar    1  UNL1        0.0000
    753 C         -15.8996   10.6622   20.4604 C.2     1  UNL1        0.0000
    754 C          -6.3897    4.2146   20.5926 C.ar    1  UNL1        0.0000
    755 C         -11.2252   17.6191   18.6506 C.ar    1  UNL1        0.0000
    756 C          -1.9513   11.3864   20.1848 C.ar    1  UNL1        0.0000
    757 C         -15.6832   10.5423   19.0724 C.3     1  UNL1        0.0000
    758 C          -5.2603    3.4543   21.0457 C.ar    1  UNL1        0.0000
    759 C         -12.3199   18.3920   18.2057 C.ar    1  UNL1        0.0000
    760 C         -10.9707   17.4483   20.0055 C.ar    1  UNL1        0.0000
    761 C          -6.6374    4.3467   19.2087 C.ar    1  UNL1        0.0000
    762 C          -0.5689   10.6125   18.3027 C.ar    1  UNL1        0.0000
    763 C         -16.9997   11.3547   20.9591 C.2     1  UNL1        0.0000
    764 C          -2.3868    8.8301   13.0963 C.ar    1  UNL1        0.0000
    765 C          -8.8566   20.6217   13.1213 C.ar    1  UNL1        0.0000
    766 C           0.0976   14.5932   12.9703 C.ar    1  UNL1        0.0000
    767 C         -13.2607   16.1356   12.9509 C.2     1  UNL1        0.0000
    768 C          -7.6525   12.6586   18.6561 C.3     1  UNL1        0.0000
    769 C         -12.4086    5.5642   20.5742 C.2     1  UNL1        0.0000
    770 C          -2.5227   10.2849   13.0731 C.3     1  UNL1        0.0000
    771 C          -8.9493   19.1881   13.0838 C.3     1  UNL1        0.0000
    772 C          -1.2002   13.9764   13.0171 C.3     1  UNL1        0.0000
    773 C         -11.8584   16.5500   12.9753 C.2     1  UNL1        0.0000
    774 C          -2.3475    8.1610   14.3259 C.ar    1  UNL1        0.0000
    775 C         -13.4943   14.2613   24.9789 C.ar    1  UNL1        0.0000
    776 C           0.7529   14.8680   14.2042 C.ar    1  UNL1        0.0000
    777 C         -18.5285    8.8398   24.8174 C.3     1  UNL1        0.0000
    778 C          -3.8427    7.7955   24.8319 C.ar    1  UNL1        0.0000
    779 C         -13.9579   15.9052   14.1633 C.3     1  UNL1        0.0000
    780 C          -7.0050    1.0236   24.9810 C.ar    1  UNL1        0.0000
    781 C          -8.8428   21.3728   14.3506 C.ar    1  UNL1        0.0000
    782 N          -8.7877   20.7740   15.5887 N.pl3   1  UNL1        0.0000
    783 N          -4.4218    7.6126   23.5929 N.pl3   1  UNL1        0.0000
    784 N          -3.0322   12.0327   20.7161 N.pl3   1  UNL1        0.0000
    785 N          -4.9293    3.2960   22.3631 N.pl3   1  UNL1        0.0000
    786 O          -3.7749   12.3209   18.1490 O.3     1  UNL1        0.0000
    787 O         -14.1987    9.0864   21.0392 O.3     1  UNL1        0.0000
    788 O          -6.9485    4.9534   22.7609 O.3     1  UNL1        0.0000
    789 O         -10.4012   17.4020   16.4512 O.3     1  UNL1        0.0000
    790 O          -9.5649   16.0151   18.0373 O.3     1  UNL1        0.0000
    791 O          -8.5003    5.1974   21.1343 O.3     1  UNL1        0.0000
    792 O          -2.1867   11.9966   16.5715 O.3     1  UNL1        0.0000
    793 O         -15.0097   10.4735   22.6372 O.3     1  UNL1        0.0000
    794 O          -4.8592   11.7417   15.5724 O.3     1  UNL1        0.0000
    795 O         -12.5055    9.6003   23.1375 O.3     1  UNL1        0.0000
    796 O          -3.9204   14.0290   16.0224 O.3     1  UNL1        0.0000
    797 O         -14.2576    7.8756   23.6302 O.3     1  UNL1        0.0000
    798 O          -9.6511    4.6677   23.7249 O.3     1  UNL1        0.0000
    799 O          -7.8827   16.5631   15.9530 O.3     1  UNL1        0.0000
    800 O          -8.6972    6.9292   23.2607 O.3     1  UNL1        0.0000
    801 O          -9.5889   14.8060   15.4356 O.3     1  UNL1        0.0000
    802 O          -7.2799    3.8134   25.0270 O.3     1  UNL1        0.0000
    803 O          -9.0324   18.4867   14.1790 O.3     1  UNL1        0.0000
    804 O          -6.4778    6.6016   25.0219 O.3     1  UNL1        0.0000
    805 O         -11.2684   16.6510   14.1189 O.2     1  UNL1        0.0000
    806 O          -1.7396   13.6762   14.1651 O.3     1  UNL1        0.0000
    807 O         -15.8939    9.7158   24.9529 O.2     1  UNL1        0.0000
    808 O          -2.5351   10.9219   14.1945 O.3     1  UNL1        0.0000
    809 O         -13.6257   11.4981   25.0342 O.3     1  UNL1        0.0000
    810 O          -6.6674   14.1331   16.0735 O.3     1  UNL1        0.0000
    811 O         -11.3694    7.1293   23.0545 O.3     1  UNL1        0.0000
    812 O          -4.2133   12.9080   13.1407 O.3     1  UNL1        0.0000
    813 O          -8.7810   16.0101   12.9740 O.3     1  UNL1        0.0000
    814 H          -7.5824    8.8213   21.3149 H       1  UNL1        0.0000
    815 H         -11.4816    3.1335   19.8623 H       1  UNL1        0.0000
    816 H          -6.7468   17.9032   18.5589 H       1  UNL1        0.0000
    817 H          -6.4623   10.5789   19.9093 H       1  UNL1        0.0000
    818 H         -11.3781   10.7692   20.7115 H       1  UNL1        0.0000
    819 H         -14.9326    5.6932   19.6280 H       1  UNL1        0.0000
    820 H         -10.0318    8.9231   21.6774 H       1  UNL1        0.0000
    821 H         -10.2514   12.5362   19.3328 H       1  UNL1        0.0000
    822 H          -5.6645   15.7072   18.1673 H       1  UNL1        0.0000
    823 H         -19.2849   15.8998   18.7037 H      59  UNL59       0.0000
    824 C          -8.2931   11.6587   19.5460 C.ar    1  UNL1        0.0000
    825 C          -9.5421    9.6944   21.0842 C.ar    1  UNL1        0.0000
    826 C          -5.0966   16.5120   18.6347 C.ar    1  UNL1        0.0000
    827 C         -13.1354    4.5168   19.8117 C.2     1  UNL1        0.0000
    828 C          -9.6807   11.7221   19.7746 C.ar    1  UNL1        0.0000
    829 C          -8.1583    9.6357   20.8776 C.ar    1  UNL1        0.0000
    830 C          -5.7105   17.7508   18.8569 C.ar    1  UNL1        0.0000
    831 C         -12.5177    3.2771   19.5627 C.3     1  UNL1        0.0000
    832 C          -3.7588   16.3033   18.9900 C.ar    1  UNL1        0.0000
    833 C         -14.4732    4.7271   19.4291 C.3     1  UNL1        0.0000
    834 C          -7.5324   10.6148   20.1031 C.ar    1  UNL1        0.0000
    835 C         -10.3034   10.7357   20.5390 C.ar    1  UNL1        0.0000
    836 O          -6.4121   12.5160   18.3547 O.3     1  UNL1        0.0000
    837 O         -13.0325    6.6422   20.8875 O.2     1  UNL1        0.0000
    838 O         -11.2112    5.3187   20.9633 O.2     1  UNL1        0.0000
    839 O          -8.3752   13.6076   18.1883 O.3     1  UNL1        0.0000
    840 N          -5.1749   18.0241   38.1412 N.pl3  20  UNL20       0.0000
    841 N          -4.7002   17.2447   40.1263 N.pl3  20  UNL20       0.0000
    842 C          -4.4961   16.8290   37.9572 C.2    20  UNL20       0.0000
    843 C          -4.1955   16.3439   39.2039 C.2    20  UNL20       0.0000
    844 C          -3.3990   18.1942   42.0151 C.3    20  UNL20       0.0000
    845 C          -5.6675   18.9087   37.0777 C.3    20  UNL20       0.0000
    846 C          -5.2946   18.2531   39.4611 C.3    20  UNL20       0.0000
    847 C          -4.4855   17.2083   41.5913 C.3    20  UNL20       0.0000
    848 H          -4.2640   16.4330   36.9764 H      20  UNL20       0.0000
    849 H          -3.6773   15.4426   39.5081 H      20  UNL20       0.0000
    850 H          -2.4443   17.9649   41.5249 H      20  UNL20       0.0000
    851 H          -4.8287   19.1927   36.4333 H      20  UNL20       0.0000
    852 H          -3.6769   19.2282   41.7746 H      20  UNL20       0.0000
    853 H          -6.4269   18.3699   36.4993 H      20  UNL20       0.0000
    854 H          -3.2541   18.1259   43.1016 H      20  UNL20       0.0000
    855 H          -4.1992   16.1773   41.8388 H      20  UNL20       0.0000
    856 H          -6.1098   19.7977   37.5380 H      20  UNL20       0.0000
    857 H          -5.7943   19.1021   39.9107 H      20  UNL20       0.0000
    858 H          -5.4533   17.4137   42.0648 H      20  UNL20       0.0000
    859 TI        -18.6418    2.7094   37.3791 Ti      1  UNL1        0.0000
    860 TI         -7.8113    5.5906   28.0143 Ti      1  UNL1        0.0000
    861 TI        -14.5451   -1.2268   35.5591 Ti      1  UNL1        0.0000
    862 TI        -13.0339    7.9353   29.7861 Ti      1  UNL1        0.0000
    863 TI        -14.0325    9.6136   27.8817 Ti      1  UNL1        0.0000
    864 TI        -12.6569   -1.4811   37.5125 Ti      1  UNL1        0.0000
    865 TI        -17.6926    0.9735   35.4876 Ti      1  UNL1        0.0000
    866 TI         -9.7991    5.8932   29.8618 Ti      1  UNL1        0.0000
    867 H         -18.1399    6.6065   37.1596 H       1  UNL1        0.0000
    868 H          -7.0025    1.6846   28.3350 H       1  UNL1        0.0000
    869 H         -22.6017    1.9528   36.9966 H       1  UNL1        0.0000
    870 H          -4.4291    7.5949   28.2149 H       1  UNL1        0.0000
    871 H         -11.6813   -5.5157   37.1266 H       1  UNL1        0.0000
    872 H         -18.0910    9.0237   28.2038 H       1  UNL1        0.0000
    873 H         -13.5380    7.9768   26.0086 H       1  UNL1        0.0000
    874 H          -9.6868    5.3479   26.3144 H       1  UNL1        0.0000
    875 H         -12.1470   -2.1483   32.0014 H       1  UNL1        0.0000
    876 H         -14.7573    9.7724   33.4050 H       1  UNL1        0.0000
    877 H         -21.7652    4.3621   35.1317 H       1  UNL1        0.0000
    878 H          -5.0565    3.5063   30.3203 H       1  UNL1        0.0000
    879 H         -19.4641    2.9147   31.7979 H       1  UNL1        0.0000
    880 H         -17.1325   11.4415   30.2349 H       1  UNL1        0.0000
    881 H         -13.6402   12.7165   28.7372 H       1  UNL1        0.0000
    882 H          -7.1603   -0.3343   29.5375 H       1  UNL1        0.0000
    883 H         -10.9413    7.6155   28.4475 H       1  UNL1        0.0000
    884 H         -15.6258    0.6216   36.8527 H       1  UNL1        0.0000
    885 H          -8.4221    0.4537   35.9021 H       1  UNL1        0.0000
    886 H          -9.9033   -0.0154   36.6495 H       1  UNL1        0.0000
    887 H          -7.8480    4.8873   34.8032 H       1  UNL1        0.0000
    888 H          -8.4177    5.2459   33.1847 H       1  UNL1        0.0000
    889 H          -8.9109   -4.5011   35.7121 H       1  UNL1        0.0000
    890 H         -10.1901   -3.4005   36.1695 H       1  UNL1        0.0000
    891 C          -7.2332    4.8494   30.8778 C.3     1  UNL1        0.0000
    892 C         -19.6023    2.9708   34.5321 C.3     1  UNL1        0.0000
    893 C         -11.9646   -2.2375   34.6344 C.3     1  UNL1        0.0000
    894 C         -14.9700    9.9058   30.7454 C.3     1  UNL1        0.0000
    895 C          -6.3372    4.2451   31.8730 C.ar    1  UNL1        0.0000
    896 C         -20.5342    3.5958   33.5550 C.2     1  UNL1        0.0000
    897 C         -11.0244   -2.8519   33.6872 C.ar    1  UNL1        0.0000
    898 C         -15.8598   10.5526   31.7452 C.ar    1  UNL1        0.0000
    899 C          -6.5860    4.3200   33.2794 C.ar    1  UNL1        0.0000
    900 C         -20.3178    3.4758   32.1670 C.3     1  UNL1        0.0000
    901 C          -9.8949   -3.6122   34.1403 C.ar    1  UNL1        0.0000
    902 C         -16.9545   11.3256   31.3003 C.ar    1  UNL1        0.0000
    903 C         -15.6053   10.3819   33.1001 C.ar    1  UNL1        0.0000
    904 C         -11.2721   -2.7197   32.3033 C.ar    1  UNL1        0.0000
    905 C          -5.2036    3.5461   31.3973 C.ar    1  UNL1        0.0000
    906 C         -21.6344    4.2882   34.0537 C.2     1  UNL1        0.0000
    907 C          -7.0215    1.7636   26.1909 C.ar    1  UNL1        0.0000
    908 C         -13.4912   13.5552   26.2159 C.ar    1  UNL1        0.0000
    909 C          -4.5370    7.5267   26.0649 C.ar    1  UNL1        0.0000
    910 C         -17.8954    9.0692   26.0455 C.2     1  UNL1        0.0000
    911 C         -12.2872    5.5922   31.7507 C.3     1  UNL1        0.0000
    912 C         -17.0433   -1.5022   33.6688 C.2     1  UNL1        0.0000
    913 C          -7.1573    3.2185   26.1677 C.3     1  UNL1        0.0000
    914 C         -13.5840   12.1217   26.1784 C.3     1  UNL1        0.0000
    915 C          -5.8349    6.9099   26.1117 C.3     1  UNL1        0.0000
    916 C         -16.4931    9.4835   26.0699 C.2     1  UNL1        0.0000
    917 C          -6.9821    1.0945   27.4206 C.ar    1  UNL1        0.0000
    918 C         -18.1290    7.1949   38.0735 C.ar    1  UNL1        0.0000
    919 C          -3.8817    7.8015   27.2988 C.ar    1  UNL1        0.0000
    920 C         -23.1632    1.7734   37.9120 C.3     1  UNL1        0.0000
    921 C          -8.4774    0.7290   37.9265 C.ar    1  UNL1        0.0000
    922 C         -18.5926    8.8388   27.2580 C.3     1  UNL1        0.0000
    923 C         -11.6396   -6.0428   38.0756 C.ar    1  UNL1        0.0000
    924 C         -13.4774   14.3064   27.4452 C.ar    1  UNL1        0.0000
    925 N         -13.4224   13.7076   28.6833 N.pl3   1  UNL1        0.0000
    926 N          -9.0564    0.5462   36.6875 N.pl3   1  UNL1        0.0000
    927 N          -7.6669    4.9662   33.8107 N.pl3   1  UNL1        0.0000
    928 N          -9.5639   -3.7704   35.4577 N.pl3   1  UNL1        0.0000
    929 O          -8.4096    5.2545   31.2436 O.3     1  UNL1        0.0000
    930 O         -18.8333    2.0199   34.1338 O.3     1  UNL1        0.0000
    931 O         -11.5831   -2.1130   35.8555 O.3     1  UNL1        0.0000
    932 O         -15.0359   10.3355   29.5458 O.3     1  UNL1        0.0000
    933 O         -14.1995    8.9486   31.1319 O.3     1  UNL1        0.0000
    934 O         -13.1350   -1.8691   34.2289 O.3     1  UNL1        0.0000
    935 O          -6.8214    4.9301   29.6661 O.3     1  UNL1        0.0000
    936 O         -19.6443    3.4070   35.7318 O.3     1  UNL1        0.0000
    937 O          -9.4939    4.6753   28.6671 O.3     1  UNL1        0.0000
    938 O         -17.1401    2.5339   36.2321 O.3     1  UNL1        0.0000
    939 O          -8.5551    6.9625   29.1170 O.3     1  UNL1        0.0000
    940 O         -18.8923    0.8092   36.7248 O.3     1  UNL1        0.0000
    941 O         -14.2858   -2.3988   36.8195 O.3     1  UNL1        0.0000
    942 O         -12.5173    9.4966   29.0476 O.3     1  UNL1        0.0000
    943 O         -13.3318   -0.1373   36.3554 O.3     1  UNL1        0.0000
    944 O         -14.2236    7.7395   28.5302 O.3     1  UNL1        0.0000
    945 O         -11.9145   -3.2530   38.1216 O.3     1  UNL1        0.0000
    946 O         -13.6671   11.4203   27.2736 O.3     1  UNL1        0.0000
    947 O         -11.1124   -0.4648   38.1165 O.3     1  UNL1        0.0000
    948 O         -15.9030    9.5845   27.2135 O.2     1  UNL1        0.0000
    949 O          -6.3742    6.6097   27.2597 O.3     1  UNL1        0.0000
    950 O         -20.5285    2.6493   38.0475 O.2     1  UNL1        0.0000
    951 O          -7.1698    3.8554   27.2891 O.3     1  UNL1        0.0000
    952 O         -18.2603    4.4317   38.1288 O.3     1  UNL1        0.0000
    953 O         -11.3021    7.0667   29.1681 O.3     1  UNL1        0.0000
    954 O         -16.0040    0.0629   36.1492 O.3     1  UNL1        0.0000
    955 O          -8.8480    5.8416   26.2353 O.3     1  UNL1        0.0000
    956 O         -13.4156    8.9436   26.0686 O.3     1  UNL1        0.0000
    957 H         -12.2170    1.7549   34.4095 H       1  UNL1        0.0000
    958 H         -16.1162   -3.9330   32.9569 H       1  UNL1        0.0000
    959 H         -11.3815   10.8367   31.6535 H       1  UNL1        0.0000
    960 H         -11.0969    3.5124   33.0039 H       1  UNL1        0.0000
    961 H         -16.0128    3.7028   33.8061 H       1  UNL1        0.0000
    962 H         -19.5673   -1.3733   32.7226 H       1  UNL1        0.0000
    963 H         -14.6664    1.8566   34.7720 H       1  UNL1        0.0000
    964 H         -14.8861    5.4698   32.4274 H       1  UNL1        0.0000
    965 H         -10.2992    8.6407   31.2619 H       1  UNL1        0.0000
    966 H         -23.9196    8.8334   31.7983 H      59  UNL59       0.0000
    967 C         -12.9277    4.5923   32.6406 C.ar    1  UNL1        0.0000
    968 C         -14.1767    2.6280   34.1788 C.ar    1  UNL1        0.0000
    969 C          -9.7312    9.4456   31.7293 C.ar    1  UNL1        0.0000
    970 C         -17.7701   -2.5497   32.9064 C.2     1  UNL1        0.0000
    971 C         -14.3153    4.6557   32.8692 C.ar    1  UNL1        0.0000
    972 C         -12.7930    2.5693   33.9722 C.ar    1  UNL1        0.0000
    973 C         -10.3452   10.6843   31.9515 C.ar    1  UNL1        0.0000
    974 C         -17.1523   -3.7894   32.6573 C.3     1  UNL1        0.0000
    975 C          -8.3934    9.2369   32.0846 C.ar    1  UNL1        0.0000
    976 C         -19.1078   -2.3393   32.5237 C.3     1  UNL1        0.0000
    977 C         -12.1670    3.5483   33.1977 C.ar    1  UNL1        0.0000
    978 C         -14.9380    3.6692   33.6336 C.ar    1  UNL1        0.0000
    979 O         -11.0468    5.4496   31.4493 O.3     1  UNL1        0.0000
    980 O         -17.6672   -0.4243   33.9821 O.2     1  UNL1        0.0000
    981 O         -15.8458   -1.7477   34.0579 O.2     1  UNL1        0.0000
    982 O         -13.0099    6.5412   31.2829 O.3     1  UNL1        0.0000
    983 N          -9.8095   10.9577   51.2359 N.pl3  22  UNL22       0.0000
    984 N          -9.3348   10.1782   53.2209 N.pl3  22  UNL22       0.0000
    985 C          -9.1307    9.7626   51.0518 C.2    22  UNL22       0.0000
    986 C          -8.8301    9.2775   52.2985 C.2    22  UNL22       0.0000
    987 C          -8.0337   11.1278   55.1097 C.3    22  UNL22       0.0000
    988 C         -10.3022   11.8423   50.1723 C.3    22  UNL22       0.0000
    989 C          -9.9292   11.1866   52.5557 C.3    22  UNL22       0.0000
    990 C          -9.1201   10.1419   54.6860 C.3    22  UNL22       0.0000
    991 H          -8.8987    9.3665   50.0710 H      22  UNL22       0.0000
    992 H          -8.3120    8.3762   52.6027 H      22  UNL22       0.0000
    993 H          -7.0789   10.8985   54.6195 H      22  UNL22       0.0000
    994 H          -9.4634   12.1263   49.5279 H      22  UNL22       0.0000
    995 H          -8.3115   12.1618   54.8692 H      22  UNL22       0.0000
    996 H         -11.0616   11.3035   49.5939 H      22  UNL22       0.0000
    997 H          -7.8887   11.0594   56.1963 H      22  UNL22       0.0000
    998 H          -8.8338    9.1109   54.9334 H      22  UNL22       0.0000
    999 H         -10.7445   12.7313   50.6326 H      22  UNL22       0.0000
   1000 H         -10.4289   12.0356   53.0053 H      22  UNL22       0.0000
   1001 H         -10.0879   10.3472   55.1594 H      22  UNL22       0.0000
   1002 TI        -23.2764   -4.3570   50.4737 Ti      1  UNL1        0.0000
   1003 TI        -12.4459   -1.4758   41.1089 Ti      1  UNL1        0.0000
   1004 TI        -19.1797   -8.2932   48.6537 Ti      1  UNL1        0.0000
   1005 TI        -17.6685    0.8689   42.8807 Ti      1  UNL1        0.0000
   1006 TI        -18.6671    2.5472   40.9763 Ti      1  UNL1        0.0000
   1007 TI        -17.2915   -8.5476   50.6071 Ti      1  UNL1        0.0000
   1008 TI        -22.3272   -6.0929   48.5822 Ti      1  UNL1        0.0000
   1009 TI        -14.4337   -1.1733   42.9564 Ti      1  UNL1        0.0000
   1010 H         -22.7745   -0.4600   50.2543 H       5  UNL5        0.0000
   1011 H         -11.6372   -5.3819   41.4296 H       1  UNL1        0.0000
   1012 H         -27.2363   -5.1137   50.0913 H       6  UNL6        0.0000
   1013 H          -9.0638    0.5285   41.3096 H       1  UNL1        0.0000
   1014 H         -16.3159  -12.5821   50.2212 H       1  UNL1        0.0000
   1015 H         -22.7256    1.9573   41.2984 H       1  UNL1        0.0000
   1016 H         -18.1726    0.9104   39.1032 H       1  UNL1        0.0000
   1017 H         -14.3215   -1.7185   39.4090 H       1  UNL1        0.0000
   1018 H         -16.7816   -9.2147   45.0960 H       1  UNL1        0.0000
   1019 H         -19.3920    2.7059   46.4997 H       1  UNL1        0.0000
   1020 H         -26.3998   -2.7043   48.2263 H       1  UNL1        0.0000
   1021 H          -9.6912   -3.5601   43.4149 H       1  UNL1        0.0000
   1022 H         -24.0987   -4.1517   44.8925 H       1  UNL1        0.0000
   1023 H         -21.7672    4.3751   43.3296 H       1  UNL1        0.0000
   1024 H         -18.2749    5.6500   41.8318 H       1  UNL1        0.0000
   1025 H         -11.7950   -7.4007   42.6321 H       1  UNL1        0.0000
   1026 H         -15.5759    0.5490   41.5421 H       1  UNL1        0.0000
   1027 H         -20.2604   -6.4448   49.9474 H       1  UNL1        0.0000
   1028 H         -13.0568   -6.6127   48.9968 H       7  UNL7        0.0000
   1029 H         -14.5379   -7.0818   49.7441 H       7  UNL7        0.0000
   1030 H         -12.4827   -2.1791   47.8979 H       1  UNL1        0.0000
   1031 H         -13.0524   -1.8205   46.2793 H       1  UNL1        0.0000
   1032 H         -13.5456  -11.5676   48.8067 H       1  UNL1        0.0000
   1033 H         -14.8247  -10.4670   49.2641 H       1  UNL1        0.0000
   1034 C         -11.8679   -2.2171   43.9724 C.3     1  UNL1        0.0000
   1035 C         -24.2370   -4.0957   47.6267 C.3     1  UNL1        0.0000
   1036 C         -16.5992   -9.3039   47.7290 C.3     1  UNL1        0.0000
   1037 C         -19.6046    2.8394   43.8401 C.3     1  UNL1        0.0000
   1038 C         -10.9719   -2.8214   44.9676 C.ar    1  UNL1        0.0000
   1039 C         -25.1689   -3.4706   46.6496 C.2     1  UNL1        0.0000
   1040 C         -15.6590   -9.9183   46.7818 C.ar    1  UNL1        0.0000
   1041 C         -20.4945    3.4862   44.8398 C.ar    1  UNL1        0.0000
   1042 C         -11.2206   -2.7465   46.3740 C.ar    1  UNL1        0.0000
   1043 C         -24.9525   -3.5906   45.2616 C.3     1  UNL1        0.0000
   1044 C         -14.5296  -10.6786   47.2349 C.ar    1  UNL1        0.0000
   1045 C         -21.5892    4.2592   44.3949 C.ar    1  UNL1        0.0000
   1046 C         -20.2400    3.3154   46.1947 C.ar    1  UNL1        0.0000
   1047 C         -15.9067   -9.7862   45.3979 C.ar    1  UNL1        0.0000
   1048 C          -9.8382   -3.5204   44.4919 C.ar    1  UNL1        0.0000
   1049 C         -26.2690   -2.7782   47.1483 C.2     1  UNL1        0.0000
   1050 C         -11.6561   -5.3028   39.2855 C.ar    1  UNL1        0.0000
   1051 C         -18.1259    6.4888   39.3105 C.ar    1  UNL1        0.0000
   1052 C          -9.1717    0.4603   39.1595 C.ar    1  UNL1        0.0000
   1053 C         -22.5300    2.0027   39.1401 C.2     1  UNL1        0.0000
   1054 C         -16.9218   -1.4743   44.8453 C.3     1  UNL1        0.0000
   1055 C         -21.6779   -8.5687   46.7634 C.2     1  UNL1        0.0000
   1056 C         -11.7920   -3.8480   39.2623 C.3     1  UNL1        0.0000
   1057 C         -18.2186    5.0553   39.2730 C.3     1  UNL1        0.0000
   1058 C         -10.4695   -0.1565   39.2063 C.3     1  UNL1        0.0000
   1059 C         -21.1277    2.4171   39.1646 C.2     1  UNL1        0.0000
   1060 C         -11.6168   -5.9719   40.5152 C.ar    1  UNL1        0.0000
   1061 C         -22.7636    0.1284   51.1681 C.2     5  UNL5        0.0000
   1062 C          -8.5164    0.7351   40.3934 C.ar    1  UNL1        0.0000
   1063 C         -27.7978   -5.2930   51.0066 C.3    23  UNL23       0.0000
   1064 C         -13.1120   -6.3374   51.0211 C.2     7  UNL7        0.0000
   1065 C         -23.2272    1.7723   40.3526 C.3     1  UNL1        0.0000
   1066 C         -16.2743  -13.1093   51.1702 C.2     1  UNL1        0.0000
   1067 C         -18.1121    7.2400   40.5398 C.ar    1  UNL1        0.0000
   1068 N         -18.0570    6.6411   41.7779 N.pl3   1  UNL1        0.0000
   1069 N         -13.6911   -6.5202   49.7821 N.pl3   7  UNL7        0.0000
   1070 N         -12.3015   -2.1002   46.9053 N.pl3   1  UNL1        0.0000
   1071 N         -14.1986  -10.8368   48.5523 N.pl3   1  UNL1        0.0000
   1072 O         -13.0442   -1.8120   44.3382 O.3     1  UNL1        0.0000
   1073 O         -23.4680   -5.0465   47.2284 O.3     1  UNL1        0.0000
   1074 O         -16.2178   -9.1795   48.9501 O.3     1  UNL1        0.0000
   1075 O         -19.6705    3.2691   42.6405 O.3     1  UNL1        0.0000
   1076 O         -18.8342    1.8822   44.2265 O.3     1  UNL1        0.0000
   1077 O         -17.7696   -8.9355   47.3235 O.3     1  UNL1        0.0000
   1078 O         -11.4560   -2.1363   42.7607 O.3     1  UNL1        0.0000
   1079 O         -24.2790   -3.6594   48.8264 O.3     1  UNL1        0.0000
   1080 O         -14.1285   -2.3912   41.7617 O.3     1  UNL1        0.0000
   1081 O         -21.7747   -4.5326   49.3267 O.3     1  UNL1        0.0000
   1082 O         -13.1897   -0.1039   42.2116 O.3     1  UNL1        0.0000
   1083 O         -23.5269   -6.2572   49.8194 O.3     1  UNL1        0.0000
   1084 O         -18.9204   -9.4652   49.9141 O.3     1  UNL1        0.0000
   1085 O         -17.1520    2.4302   42.1422 O.3     1  UNL1        0.0000
   1086 O         -17.9665   -7.2037   49.4500 O.3     1  UNL1        0.0000
   1087 O         -18.8582    0.6731   41.6248 O.3     1  UNL1        0.0000
   1088 O         -16.5492  -10.3194   51.2162 O.3     1  UNL1        0.0000
   1089 O         -18.3017    4.3538   40.3682 O.3     1  UNL1        0.0000
   1090 O         -15.7470   -7.5313   51.2111 O.3     1  UNL1        0.0000
   1091 O         -20.5377    2.5181   40.3081 O.2     1  UNL1        0.0000
   1092 O         -11.0089   -0.4567   40.3543 O.3     1  UNL1        0.0000
   1093 O         -25.1632   -4.4171   51.1421 O.3     1  UNL1        0.0000
   1094 O         -11.8044   -3.2110   40.3837 O.3     1  UNL1        0.0000
   1095 O         -22.8950   -2.6347   51.2234 O.3     1  UNL1        0.0000
   1096 O         -15.9367    0.0003   42.2627 O.3     1  UNL1        0.0000
   1097 O         -20.6387   -7.0035   49.2438 O.3     1  UNL1        0.0000
   1098 O         -13.4826   -1.2248   39.3299 O.3     1  UNL1        0.0000
   1099 O         -18.0503    1.8772   39.1632 O.3     1  UNL1        0.0000
   1100 H         -16.8517   -5.3116   47.5041 H       1  UNL1        0.0000
   1101 H         -20.7508  -10.9994   46.0515 H       1  UNL1        0.0000
   1102 H         -16.0161    3.7703   44.7481 H       1  UNL1        0.0000
   1103 H         -15.7315   -3.5540   46.0985 H       1  UNL1        0.0000
   1104 H         -20.6474   -3.3636   46.9007 H       1  UNL1        0.0000
   1105 H         -24.2019   -8.4397   45.8172 H       1  UNL1        0.0000
   1106 H         -19.3010   -5.2098   47.8666 H       1  UNL1        0.0000
   1107 H         -19.5207   -1.5967   45.5220 H       1  UNL1        0.0000
   1108 H         -14.9338    1.5743   44.3566 H       1  UNL1        0.0000
   1109 H         -28.5542    1.7670   44.8929 H      59  UNL59       0.0000
   1110 C         -17.5624   -2.4741   45.7352 C.ar    1  UNL1        0.0000
   1111 C         -18.8114   -4.4385   47.2734 C.ar    1  UNL1        0.0000
   1112 C         -14.3659    2.3791   44.8239 C.ar    1  UNL1        0.0000
   1113 C         -22.4047   -9.6161   46.0010 C.2     1  UNL1        0.0000
   1114 C         -18.9500   -2.4108   45.9638 C.ar    1  UNL1        0.0000
   1115 C         -17.4276   -4.4972   47.0668 C.ar    1  UNL1        0.0000
   1116 C         -14.9798    3.6179   45.0461 C.ar    1  UNL1        0.0000
   1117 C         -21.7870  -10.8558   45.7520 C.3     1  UNL1        0.0000
   1118 C         -13.0281    2.1704   45.1792 C.ar    1  UNL1        0.0000
   1119 C         -23.7425   -9.4058   45.6183 C.3     1  UNL1        0.0000
   1120 C         -16.8017   -3.5181   46.2923 C.ar    1  UNL1        0.0000
   1121 C         -19.5727   -3.3972   46.7282 C.ar    1  UNL1        0.0000
   1122 O         -15.6814   -1.6168   44.5439 O.3     1  UNL1        0.0000
   1123 O         -22.3018   -7.4907   47.0767 O.2     1  UNL1        0.0000
   1124 O         -20.4805   -8.8142   47.1525 O.2     1  UNL1        0.0000
   1125 O         -17.6445   -0.5252   44.3775 O.3     1  UNL1        0.0000
   1126 N         -14.4442    3.8912   64.3305 N.pl3  25  UNL25       0.0000
   1127 N         -13.9695    3.1118   66.3155 N.pl3  25  UNL25       0.0000
   1128 C         -13.7654    2.6961   64.1464 C.2    25  UNL25       0.0000
   1129 C         -13.4648    2.2111   65.3931 C.2    25  UNL25       0.0000
   1130 C         -12.6683    4.0613   68.2043 C.3    25  UNL25       0.0000
   1131 C         -14.9368    4.7758   63.2669 C.3    25  UNL25       0.0000
   1132 C         -14.5638    4.1202   65.6503 C.3    25  UNL25       0.0000
   1133 C         -13.7548    3.0755   67.7806 C.3    25  UNL25       0.0000
   1134 H         -13.5333    2.3001   63.1656 H      25  UNL25       0.0000
   1135 H         -12.9466    1.3098   65.6973 H      25  UNL25       0.0000
   1136 H         -11.7136    3.8320   67.7141 H      25  UNL25       0.0000
   1137 H         -14.0980    5.0598   62.6225 H      25  UNL25       0.0000
   1138 H         -12.9462    5.0953   67.9638 H      25  UNL25       0.0000
   1139 H         -15.6962    4.2371   62.6885 H      25  UNL25       0.0000
   1140 H         -12.5234    3.9930   69.2909 H      25  UNL25       0.0000
   1141 H         -13.4685    2.0444   68.0280 H      25  UNL25       0.0000
   1142 H         -15.3791    5.6648   63.7272 H      25  UNL25       0.0000
   1143 H         -15.0636    4.9692   66.0999 H      25  UNL25       0.0000
   1144 H         -14.7226    3.2808   68.2540 H      25  UNL25       0.0000
   1145 TI        -15.8895   31.4548   11.1334 Ti      1  UNL1        0.0000
   1146 TI         -5.0590   34.3360    1.7686 Ti      1  UNL1        0.0000
   1147 TI        -11.7928   27.5186    9.3134 Ti      1  UNL1        0.0000
   1148 TI        -10.2816   36.6807    3.5403 Ti      1  UNL1        0.0000
   1149 TI        -11.2802   38.3590    1.6360 Ti      1  UNL1        0.0000
   1150 TI         -9.9046   27.2642   11.2667 Ti      1  UNL1        0.0000
   1151 TI        -14.9403   29.7189    9.2419 Ti      1  UNL1        0.0000
   1152 TI         -7.0468   34.6385    3.6160 Ti      1  UNL1        0.0000
   1153 H         -15.3876   35.3519   10.9139 H       1  UNL1        0.0000
   1154 H          -4.2502   30.4299    2.0892 H       1  UNL1        0.0000
   1155 H         -19.8494   30.6982   10.7509 H       1  UNL1        0.0000
   1156 H          -1.6769   36.3403    1.9692 H       1  UNL1        0.0000
   1157 H          -8.9290   23.2297   10.8808 H       1  UNL1        0.0000
   1158 H         -15.3387   37.7691    1.9580 H       1  UNL1        0.0000
   1159 H         -10.7857   36.7222   -0.2371 H       1  UNL1        0.0000
   1160 H          -6.9345   34.0933    0.0686 H       1  UNL1        0.0000
   1161 H          -9.3947   26.5971    5.7556 H       1  UNL1        0.0000
   1162 H         -12.0051   38.5177    7.1593 H       1  UNL1        0.0000
   1163 H         -19.0129   33.1075    8.8860 H       1  UNL1        0.0000
   1164 H          -2.3043   32.2517    4.0745 H       1  UNL1        0.0000
   1165 H         -16.7118   31.6601    5.5521 H       1  UNL1        0.0000
   1166 H         -14.3803   40.1869    3.9892 H       1  UNL1        0.0000
   1167 H         -10.8879   41.4619    2.4914 H       1  UNL1        0.0000
   1168 H          -4.4081   28.4111    3.2917 H       1  UNL1        0.0000
   1169 H          -8.1890   36.3608    2.2017 H       1  UNL1        0.0000
   1170 H         -12.8735   29.3670   10.6070 H       1  UNL1        0.0000
   1171 H          -5.6699   29.1991    9.6564 H       1  UNL1        0.0000
   1172 H          -7.1510   28.7300   10.4037 H       1  UNL1        0.0000
   1173 H          -5.0957   33.6327    8.5575 H       1  UNL1        0.0000
   1174 H          -5.6655   33.9913    6.9390 H       1  UNL1        0.0000
   1175 H          -6.1587   24.2443    9.4664 H       1  UNL1        0.0000
   1176 H          -7.4378   25.3448    9.9238 H       1  UNL1        0.0000
   1177 C          -4.4810   33.5948    4.6321 C.3     1  UNL1        0.0000
   1178 C         -16.8500   31.7162    8.2863 C.3     1  UNL1        0.0000
   1179 C          -9.2123   26.5079    8.3887 C.3     1  UNL1        0.0000
   1180 C         -12.2177   38.6512    4.4997 C.3     1  UNL1        0.0000
   1181 C          -3.5850   32.9904    5.6273 C.ar    1  UNL1        0.0000
   1182 C         -17.7819   32.3412    7.3093 C.2     1  UNL1        0.0000
   1183 C          -8.2721   25.8935    7.4415 C.ar    1  UNL1        0.0000
   1184 C         -13.1076   39.2980    5.4995 C.ar    1  UNL1        0.0000
   1185 C          -3.8337   33.0654    7.0337 C.ar    1  UNL1        0.0000
   1186 C         -17.5656   32.2212    5.9213 C.3     1  UNL1        0.0000
   1187 C          -7.1427   25.1332    7.8945 C.ar    1  UNL1        0.0000
   1188 C         -14.2023   40.0710    5.0546 C.ar    1  UNL1        0.0000
   1189 C         -12.8531   39.1273    6.8544 C.ar    1  UNL1        0.0000
   1190 C          -8.5198   26.0257    6.0575 C.ar    1  UNL1        0.0000
   1191 C          -2.4513   32.2915    5.1516 C.ar    1  UNL1        0.0000
   1192 C         -18.8821   33.0336    7.8080 C.2     1  UNL1        0.0000
   1193 C          -4.2692   30.5090   -0.0549 C.2     1  UNL1        0.0000
   1194 C         -10.7389   42.3006   -0.0298 C.2     1  UNL1        0.0000
   1195 C          -1.7848   36.2721   -0.1809 C.2     1  UNL1        0.0000
   1196 C         -15.1431   37.8146   -0.2003 C.2     1  UNL1        0.0000
   1197 C          -9.5349   34.3375    5.5049 C.3     1  UNL1        0.0000
   1198 C         -14.2910   27.2432    7.4231 C.2     1  UNL1        0.0000
   1199 C          -4.4051   31.9639   -0.0781 C.2     1  UNL1        0.0000
   1200 C         -10.8317   40.8671   -0.0673 C.2     1  UNL1        0.0000
   1201 C          -3.0826   35.6553   -0.1340 C.2     1  UNL1        0.0000
   1202 C         -13.7408   38.2289   -0.1758 C.2     1  UNL1        0.0000
   1203 C          -4.2299   29.8399    1.1748 C.2     1  UNL1        0.0000
   1204 C         -15.3767   35.9403   11.8278 C.ar    1  UNL1        0.0000
   1205 C          -1.1295   36.5469    1.0531 C.2     1  UNL1        0.0000
   1206 C         -20.4109   30.5188   11.6663 C.3     1  UNL1        0.0000
   1207 C          -5.7251   29.4744   11.6808 C.ar    1  UNL1        0.0000
   1208 C         -15.8403   37.5841    1.0122 C.3     1  UNL1        0.0000
   1209 C          -8.8874   22.7025   11.8299 C.ar    1  UNL1        0.0000
   1210 C         -10.7252   43.0518    1.1994 C.2     1  UNL1        0.0000
   1211 N         -10.6701   42.4530    2.4376 N.pl3   1  UNL1        0.0000
   1212 N          -6.3042   29.2916   10.4418 N.pl3   1  UNL1        0.0000
   1213 N          -4.9146   33.7116    7.5650 N.pl3   1  UNL1        0.0000
   1214 N          -6.8116   24.9750    9.2119 N.pl3   1  UNL1        0.0000
   1215 O          -5.6573   33.9999    4.9979 O.3     1  UNL1        0.0000
   1216 O         -16.0811   30.7653    7.8880 O.3     1  UNL1        0.0000
   1217 O          -8.8309   26.6324    9.6098 O.3     1  UNL1        0.0000
   1218 O         -12.2836   39.0809    3.3001 O.3     1  UNL1        0.0000
   1219 O         -11.4473   37.6940    4.8862 O.3     1  UNL1        0.0000
   1220 O         -10.3827   26.8763    7.9831 O.3     1  UNL1        0.0000
   1221 O          -4.0691   33.6755    3.4203 O.3     1  UNL1        0.0000
   1222 O         -16.8921   32.1524    9.4860 O.3     1  UNL1        0.0000
   1223 O          -6.7416   33.4206    2.4213 O.3     1  UNL1        0.0000
   1224 O         -14.3878   31.2792    9.9864 O.3     1  UNL1        0.0000
   1225 O          -5.8028   35.7079    2.8713 O.3     1  UNL1        0.0000
   1226 O         -16.1400   29.5546   10.4791 O.3     1  UNL1        0.0000
   1227 O         -11.5335   26.3466   10.5738 O.3     1  UNL1        0.0000
   1228 O          -9.7651   38.2420    2.8019 O.3     1  UNL1        0.0000
   1229 O         -10.5796   28.6081   10.1096 O.3     1  UNL1        0.0000
   1230 O         -11.4713   36.4849    2.2844 O.3     1  UNL1        0.0000
   1231 O          -9.1623   25.4924   11.8759 O.3     1  UNL1        0.0000
   1232 O         -10.9148   40.1656    1.0279 O.2     1  UNL1        0.0000
   1233 O          -8.3601   28.2806   11.8707 O.3     1  UNL1        0.0000
   1234 O         -13.1507   38.3299    0.9678 O.2     1  UNL1        0.0000
   1235 O          -3.6219   35.3551    1.0140 O.2     1  UNL1        0.0000
   1236 O         -17.7763   31.3947   11.8018 O.2     1  UNL1        0.0000
   1237 O          -4.4175   32.6008    1.0434 O.2     1  UNL1        0.0000
   1238 O         -15.5081   33.1771   11.8831 O.3     1  UNL1        0.0000
   1239 O          -8.5498   35.8121    2.9224 O.3     1  UNL1        0.0000
   1240 O         -13.2518   28.8083    9.9034 O.3     1  UNL1        0.0000
   1241 O          -6.0957   34.5870   -0.0104 O.3     1  UNL1        0.0000
   1242 O         -10.6634   37.6890   -0.1772 O.3     1  UNL1        0.0000
   1243 H          -9.4647   30.5002    8.1637 H       1  UNL1        0.0000
   1244 H         -13.3639   24.8124    6.7111 H       1  UNL1        0.0000
   1245 H          -8.6292   39.5821    5.4078 H       1  UNL1        0.0000
   1246 H          -8.3446   32.2578    6.7582 H       1  UNL1        0.0000
   1247 H         -13.2605   32.4482    7.5604 H       1  UNL1        0.0000
   1248 H         -16.8150   27.3721    6.4769 H       1  UNL1        0.0000
   1249 H         -11.9141   30.6020    8.5263 H       1  UNL1        0.0000
   1250 H         -12.1338   34.2151    6.1817 H       1  UNL1        0.0000
   1251 H          -7.5469   37.3861    5.0162 H       1  UNL1        0.0000
   1252 H         -21.1673   37.5788    5.5526 H      59  UNL59       0.0000
   1253 C         -10.1754   33.3377    6.3949 C.ar    1  UNL1        0.0000
   1254 C         -11.4244   31.3733    7.9331 C.ar    1  UNL1        0.0000
   1255 C          -6.9790   38.1910    5.4836 C.ar    1  UNL1        0.0000
   1256 C         -15.0178   26.1957    6.6606 C.2     1  UNL1        0.0000
   1257 C         -11.5631   33.4011    6.6234 C.ar    1  UNL1        0.0000
   1258 C         -10.0407   31.3146    7.7264 C.ar    1  UNL1        0.0000
   1259 C          -7.5929   39.4297    5.7058 C.ar    1  UNL1        0.0000
   1260 C         -14.4001   24.9560    6.4116 C.3     1  UNL1        0.0000
   1261 C          -5.6412   37.9822    5.8389 C.ar    1  UNL1        0.0000
   1262 C         -16.3556   26.4060    6.2780 C.3     1  UNL1        0.0000
   1263 C          -9.4148   32.2937    6.9520 C.ar    1  UNL1        0.0000
   1264 C         -12.1857   32.4146    7.3879 C.ar    1  UNL1        0.0000
   1265 O          -8.2945   34.1950    5.2036 O.3     1  UNL1        0.0000
   1266 O         -14.9149   28.3211    7.7364 O.2     1  UNL1        0.0000
   1267 O         -13.0936   26.9977    7.8122 O.2     1  UNL1        0.0000
   1268 O         -10.2576   35.2866    5.0372 O.3     1  UNL1        0.0000
   1269 N          -7.0572   39.7031   24.9901 N.pl3  27  UNL27       0.0000
   1270 N          -6.5825   38.9236   26.9752 N.pl3  27  UNL27       0.0000
   1271 C          -6.3785   38.5079   24.8061 C.2    27  UNL27       0.0000
   1272 C          -6.0778   38.0229   26.0527 C.2    27  UNL27       0.0000
   1273 C          -5.2814   39.8731   28.8640 C.3    27  UNL27       0.0000
   1274 C          -7.5499   40.5877   23.9266 C.3    27  UNL27       0.0000
   1275 C          -7.1769   39.9320   26.3100 C.3    27  UNL27       0.0000
   1276 C          -6.3678   38.8873   28.4402 C.3    27  UNL27       0.0000
   1277 H          -6.1464   38.1119   23.8253 H      27  UNL27       0.0000
   1278 H          -5.5597   37.1216   26.3570 H      27  UNL27       0.0000
   1279 H          -4.3266   39.6438   28.3738 H      27  UNL27       0.0000
   1280 H          -6.7111   40.8717   23.2822 H      27  UNL27       0.0000
   1281 H          -5.5592   40.9071   28.6234 H      27  UNL27       0.0000
   1282 H          -8.3093   40.0489   23.3482 H      27  UNL27       0.0000
   1283 H          -5.1365   39.8048   29.9505 H      27  UNL27       0.0000
   1284 H          -6.0816   37.8562   28.6877 H      27  UNL27       0.0000
   1285 H          -7.9922   41.4767   24.3868 H      27  UNL27       0.0000
   1286 H          -7.6767   40.7810   26.7596 H      27  UNL27       0.0000
   1287 H          -7.3357   39.0926   28.9137 H      27  UNL27       0.0000
   1288 TI        -20.5241   24.3883   24.2280 Ti      1  UNL1        0.0000
   1289 TI         -9.6937   27.2696   14.8632 Ti      1  UNL1        0.0000
   1290 TI        -16.4275   20.4521   22.4080 Ti      1  UNL1        0.0000
   1291 TI        -14.9163   29.6143   16.6350 Ti      1  UNL1        0.0000
   1292 TI        -15.9148   31.2926   14.7306 Ti      1  UNL1        0.0000
   1293 TI        -14.5393   20.1978   24.3614 Ti      1  UNL1        0.0000
   1294 TI        -19.5749   22.6525   22.3365 Ti      1  UNL1        0.0000
   1295 TI        -11.6815   27.5721   16.7106 Ti      1  UNL1        0.0000
   1296 H         -20.0223   28.2854   24.0085 H       1  UNL1        0.0000
   1297 H          -8.8849   23.3635   15.1838 H       1  UNL1        0.0000
   1298 H         -24.4840   23.6317   23.8455 H       1  UNL1        0.0000
   1299 H          -6.3115   29.2739   15.0638 H       1  UNL1        0.0000
   1300 H         -13.5636   16.1633   23.9754 H       1  UNL1        0.0000
   1301 H         -19.9734   30.7027   15.0526 H       1  UNL1        0.0000
   1302 H         -15.4204   29.6558   12.8575 H       1  UNL1        0.0000
   1303 H         -11.5692   27.0269   13.1632 H       1  UNL1        0.0000
   1304 H         -14.0293   19.5307   18.8503 H       1  UNL1        0.0000
   1305 H         -16.6397   31.4513   20.2539 H       1  UNL1        0.0000
   1306 H         -23.6476   26.0411   21.9806 H       1  UNL1        0.0000
   1307 H          -6.9389   25.1852   17.1692 H       1  UNL1        0.0000
   1308 H         -21.3465   24.5936   18.6467 H       1  UNL1        0.0000
   1309 H         -19.0149   33.1204   17.0838 H       1  UNL1        0.0000
   1310 H         -15.5226   34.3954   15.5860 H       1  UNL1        0.0000
   1311 H          -9.0427   21.3447   16.3863 H       1  UNL1        0.0000
   1312 H         -12.8236   29.2944   15.2963 H       1  UNL1        0.0000
   1313 H         -17.5082   22.3005   23.7016 H       1  UNL1        0.0000
   1314 H         -10.3045   22.1327   22.7510 H       1  UNL1        0.0000
   1315 H         -11.7856   21.6636   23.4984 H       1  UNL1        0.0000
   1316 H          -9.7304   26.5663   21.6521 H       1  UNL1        0.0000
   1317 H         -10.3001   26.9249   20.0336 H       1  UNL1        0.0000
   1318 H         -10.7933   17.1778   22.5610 H       1  UNL1        0.0000
   1319 H         -12.0725   18.2784   23.0184 H       1  UNL1        0.0000
   1320 C          -9.1156   26.5283   17.7267 C.3     1  UNL1        0.0000
   1321 C         -21.4847   24.6497   21.3809 C.3     1  UNL1        0.0000
   1322 C         -13.8470   19.4414   21.4833 C.3     1  UNL1        0.0000
   1323 C         -16.8524   31.5848   17.5943 C.3     1  UNL1        0.0000
   1324 C          -8.2196   25.9240   18.7219 C.ar    1  UNL1        0.0000
   1325 C         -22.4166   25.2747   20.4039 C.2     1  UNL1        0.0000
   1326 C         -12.9068   18.8271   20.5361 C.ar    1  UNL1        0.0000
   1327 C         -17.7422   32.2316   18.5941 C.ar    1  UNL1        0.0000
   1328 C          -8.4684   25.9989   20.1283 C.ar    1  UNL1        0.0000
   1329 C         -22.2002   25.1548   19.0159 C.3     1  UNL1        0.0000
   1330 C         -11.7773   18.0668   20.9891 C.ar    1  UNL1        0.0000
   1331 C         -18.8369   33.0045   18.1492 C.ar    1  UNL1        0.0000
   1332 C         -17.4877   32.0608   19.9490 C.ar    1  UNL1        0.0000
   1333 C         -13.1545   18.9592   19.1522 C.ar    1  UNL1        0.0000
   1334 C          -7.0859   25.2250   18.2462 C.ar    1  UNL1        0.0000
   1335 C         -23.5168   25.9672   20.9026 C.2     1  UNL1        0.0000
   1336 C          -8.9039   23.4426   13.0398 C.ar    1  UNL1        0.0000
   1337 C         -15.3736   35.2342   13.0648 C.ar    1  UNL1        0.0000
   1338 C          -6.4194   29.2057   12.9137 C.ar    1  UNL1        0.0000
   1339 C         -19.7778   30.7481   12.8944 C.2     1  UNL1        0.0000
   1340 C         -14.1695   27.2711   18.5995 C.3     1  UNL1        0.0000
   1341 C         -18.9256   20.1767   20.5177 C.2     1  UNL1        0.0000
   1342 C          -9.0397   24.8974   13.0166 C.3     1  UNL1        0.0000
   1343 C         -15.4663   33.8006   13.0273 C.3     1  UNL1        0.0000
   1344 C          -7.7173   28.5889   12.9606 C.3     1  UNL1        0.0000
   1345 C         -18.3754   31.1625   12.9188 C.2     1  UNL1        0.0000
   1346 C          -8.8645   22.7735   14.2694 C.ar    1  UNL1        0.0000
   1347 C         -20.0113   28.8738   24.9224 C.ar    1  UNL1        0.0000
   1348 C          -5.7641   29.4805   14.1477 C.ar    1  UNL1        0.0000
   1349 C         -25.0455   23.4523   24.7609 C.3     1  UNL1        0.0000
   1350 C         -10.3598   22.4080   24.7754 C.ar    1  UNL1        0.0000
   1351 C         -20.4749   30.5177   14.1068 C.3     1  UNL1        0.0000
   1352 C         -13.5220   15.6361   24.9245 C.ar    1  UNL1        0.0000
   1353 C         -15.3598   35.9854   14.2940 C.ar    1  UNL1        0.0000
   1354 N         -15.3048   35.3865   15.5322 N.pl3   1  UNL1        0.0000
   1355 N         -10.9388   22.2251   23.5364 N.pl3   1  UNL1        0.0000
   1356 N          -9.5493   26.6452   20.6596 N.pl3   1  UNL1        0.0000
   1357 N         -11.4463   17.9085   22.3065 N.pl3   1  UNL1        0.0000
   1358 O         -10.2920   26.9334   18.0925 O.3     1  UNL1        0.0000
   1359 O         -20.7157   23.6989   20.9827 O.3     1  UNL1        0.0000
   1360 O         -13.4655   19.5659   22.7044 O.3     1  UNL1        0.0000
   1361 O         -16.9183   32.0145   16.3947 O.3     1  UNL1        0.0000
   1362 O         -16.0819   30.6276   17.9808 O.3     1  UNL1        0.0000
   1363 O         -15.0174   19.8099   21.0778 O.3     1  UNL1        0.0000
   1364 O          -8.7038   26.6091   16.5149 O.3     1  UNL1        0.0000
   1365 O         -21.5267   25.0860   22.5807 O.3     1  UNL1        0.0000
   1366 O         -11.3763   26.3542   15.5159 O.3     1  UNL1        0.0000
   1367 O         -19.0225   24.2128   23.0810 O.3     1  UNL1        0.0000
   1368 O         -10.4375   28.6415   15.9659 O.3     1  UNL1        0.0000
   1369 O         -20.7747   22.4881   23.5737 O.3     1  UNL1        0.0000
   1370 O         -16.1682   19.2802   23.6684 O.3     1  UNL1        0.0000
   1371 O         -14.3997   31.1756   15.8965 O.3     1  UNL1        0.0000
   1372 O         -15.2142   21.5417   23.2042 O.3     1  UNL1        0.0000
   1373 O         -16.1059   29.4185   15.3791 O.3     1  UNL1        0.0000
   1374 O         -13.7969   18.4259   24.9705 O.3     1  UNL1        0.0000
   1375 O         -15.5495   33.0992   14.1225 O.3     1  UNL1        0.0000
   1376 O         -12.9948   21.2141   24.9653 O.3     1  UNL1        0.0000
   1377 O         -17.7854   31.2635   14.0624 O.2     1  UNL1        0.0000
   1378 O          -8.2566   28.2887   14.1086 O.3     1  UNL1        0.0000
   1379 O         -22.4109   24.3283   24.8964 O.2     1  UNL1        0.0000
   1380 O          -9.0522   25.5344   14.1380 O.3     1  UNL1        0.0000
   1381 O         -20.1427   26.1106   24.9777 O.3     1  UNL1        0.0000
   1382 O         -13.1845   28.7457   16.0170 O.3     1  UNL1        0.0000
   1383 O         -17.8864   21.7418   22.9980 O.3     1  UNL1        0.0000
   1384 O         -10.7304   27.5205   13.0842 O.3     1  UNL1        0.0000
   1385 O         -15.2980   30.6226   12.9175 O.3     1  UNL1        0.0000
   1386 H         -14.0994   23.4338   21.2584 H       1  UNL1        0.0000
   1387 H         -17.9986   17.7460   19.8058 H       1  UNL1        0.0000
   1388 H         -13.2638   32.5157   18.5024 H       1  UNL1        0.0000
   1389 H         -12.9793   25.1914   19.8528 H       1  UNL1        0.0000
   1390 H         -17.8952   25.3817   20.6550 H       1  UNL1        0.0000
   1391 H         -21.4497   20.3057   19.5715 H       1  UNL1        0.0000
   1392 H         -16.5488   23.5356   21.6209 H       1  UNL1        0.0000
   1393 H         -16.7684   27.1487   19.2763 H       1  UNL1        0.0000
   1394 H         -12.1816   30.3197   18.1108 H       1  UNL1        0.0000
   1395 H         -25.8019   30.5124   18.6472 H      59  UNL59       0.0000
   1396 C         -14.8101   26.2713   19.4895 C.ar    1  UNL1        0.0000
   1397 C         -16.0591   24.3069   21.0277 C.ar    1  UNL1        0.0000
   1398 C         -11.6136   31.1245   18.5782 C.ar    1  UNL1        0.0000
   1399 C         -19.6525   19.1293   19.7552 C.2     1  UNL1        0.0000
   1400 C         -16.1977   26.3346   19.7181 C.ar    1  UNL1        0.0000
   1401 C         -14.6754   24.2482   20.8210 C.ar    1  UNL1        0.0000
   1402 C         -12.2276   32.3633   18.8004 C.ar    1  UNL1        0.0000
   1403 C         -19.0347   17.8896   19.5062 C.3     1  UNL1        0.0000
   1404 C         -10.2758   30.9158   18.9335 C.ar    1  UNL1        0.0000
   1405 C         -20.9902   19.3396   19.3726 C.3     1  UNL1        0.0000
   1406 C         -14.0494   25.2273   20.0466 C.ar    1  UNL1        0.0000
   1407 C         -16.8204   25.3482   20.4825 C.ar    1  UNL1        0.0000
   1408 O         -12.9292   27.1285   18.2982 O.3     1  UNL1        0.0000
   1409 O         -19.5495   21.2547   20.8310 O.2     1  UNL1        0.0000
   1410 O         -17.7282   19.9312   20.9068 O.2     1  UNL1        0.0000
   1411 O         -14.8923   28.2202   18.1318 O.3     1  UNL1        0.0000
   1412 N         -11.6919   32.6366   38.0847 N.pl3  29  UNL29       0.0000
   1413 N         -11.2172   31.8572   40.0698 N.pl3  29  UNL29       0.0000
   1414 C         -11.0131   31.4415   37.9007 C.2    29  UNL29       0.0000
   1415 C         -10.7125   30.9565   39.1473 C.2    29  UNL29       0.0000
   1416 C          -9.9160   32.8067   41.9586 C.3    29  UNL29       0.0000
   1417 C         -12.1845   33.5212   37.0212 C.3    29  UNL29       0.0000
   1418 C         -11.8116   32.8656   39.4046 C.3    29  UNL29       0.0000
   1419 C         -11.0025   31.8209   41.5348 C.3    29  UNL29       0.0000
   1420 H         -10.7810   31.0455   36.9199 H      29  UNL29       0.0000
   1421 H         -10.1943   30.0552   39.4516 H      29  UNL29       0.0000
   1422 H          -8.9613   32.5774   41.4684 H      29  UNL29       0.0000
   1423 H         -11.3457   33.8052   36.3768 H      29  UNL29       0.0000
   1424 H         -10.1939   33.8407   41.7180 H      29  UNL29       0.0000
   1425 H         -12.9440   32.9824   36.4428 H      29  UNL29       0.0000
   1426 H          -9.7711   32.7384   43.0451 H      29  UNL29       0.0000
   1427 H         -10.7162   30.7898   41.7823 H      29  UNL29       0.0000
   1428 H         -12.6268   34.4102   37.4814 H      29  UNL29       0.0000
   1429 H         -12.3113   33.7146   39.8542 H      29  UNL29       0.0000
   1430 H         -11.9703   32.0262   42.0083 H      29  UNL29       0.0000
   1431 TI        -25.1588   17.3219   37.3226 Ti      1  UNL1        0.0000
   1432 TI        -14.3283   20.2031   27.9578 Ti      1  UNL1        0.0000
   1433 TI        -21.0621   13.3857   35.5026 Ti      1  UNL1        0.0000
   1434 TI        -19.5509   22.5478   29.7296 Ti      1  UNL1        0.0000
   1435 TI        -20.5495   24.2262   27.8252 Ti      1  UNL1        0.0000
   1436 TI        -19.1739   13.1314   37.4560 Ti      1  UNL1        0.0000
   1437 TI        -24.2096   15.5860   35.4311 Ti      1  UNL1        0.0000
   1438 TI        -16.3161   20.5057   29.8052 Ti      1  UNL1        0.0000
   1439 H         -24.6569   21.2190   37.1031 H       1  UNL1        0.0000
   1440 H         -13.5195   16.2971   28.2785 H       1  UNL1        0.0000
   1441 H         -29.1187   16.5653   36.9401 H       1  UNL1        0.0000
   1442 H         -10.9462   22.2074   28.1584 H       1  UNL1        0.0000
   1443 H         -18.1983    9.0968   37.0700 H       1  UNL1        0.0000
   1444 H         -24.6080   23.6363   28.1472 H       1  UNL1        0.0000
   1445 H         -20.0550   22.5894   25.9521 H       1  UNL1        0.0000
   1446 H         -16.2038   19.9604   26.2578 H       1  UNL1        0.0000
   1447 H         -18.6640   12.4643   31.9449 H       1  UNL1        0.0000
   1448 H         -21.2744   24.3849   33.3485 H       1  UNL1        0.0000
   1449 H         -28.2822   18.9746   35.0752 H       1  UNL1        0.0000
   1450 H         -11.5736   18.1188   30.2638 H       1  UNL1        0.0000
   1451 H         -25.9811   17.5272   31.7414 H       1  UNL1        0.0000
   1452 H         -23.6496   26.0540   30.1784 H       1  UNL1        0.0000
   1453 H         -20.1572   27.3290   28.6806 H       1  UNL1        0.0000
   1454 H         -13.6774   14.2782   29.4809 H       1  UNL1        0.0000
   1455 H         -17.4583   22.2280   28.3909 H       1  UNL1        0.0000
   1456 H         -22.1428   15.2341   36.7962 H       1  UNL1        0.0000
   1457 H         -14.9392   15.0662   35.8456 H       1  UNL1        0.0000
   1458 H         -16.4203   14.5972   36.5930 H       1  UNL1        0.0000
   1459 H         -14.3650   19.4999   34.7467 H       1  UNL1        0.0000
   1460 H         -14.9348   19.8584   33.1282 H       1  UNL1        0.0000
   1461 H         -15.4280   10.1114   35.6556 H       1  UNL1        0.0000
   1462 H         -16.7071   11.2120   36.1130 H       1  UNL1        0.0000
   1463 C         -13.7503   19.4619   30.8213 C.3     1  UNL1        0.0000
   1464 C         -26.1193   17.5833   34.4755 C.3     1  UNL1        0.0000
   1465 C         -18.4816   12.3750   34.5779 C.3     1  UNL1        0.0000
   1466 C         -21.4870   24.5184   30.6889 C.3     1  UNL1        0.0000
   1467 C         -12.8543   18.8576   31.8165 C.ar    1  UNL1        0.0000
   1468 C         -27.0512   18.2083   33.4985 C.2     1  UNL1        0.0000
   1469 C         -17.5414   11.7607   33.6307 C.ar    1  UNL1        0.0000
   1470 C         -22.3768   25.1652   31.6887 C.ar    1  UNL1        0.0000
   1471 C         -13.1030   18.9325   33.2229 C.ar    1  UNL1        0.0000
   1472 C         -26.8348   18.0883   32.1105 C.3     1  UNL1        0.0000
   1473 C         -16.4119   11.0004   34.0838 C.ar    1  UNL1        0.0000
   1474 C         -23.4716   25.9381   31.2438 C.ar    1  UNL1        0.0000
   1475 C         -22.1224   24.9944   33.0436 C.ar    1  UNL1        0.0000
   1476 C         -17.7891   11.8928   32.2468 C.ar    1  UNL1        0.0000
   1477 C         -11.7206   18.1586   31.3408 C.ar    1  UNL1        0.0000
   1478 C         -28.1514   18.9007   33.9972 C.2     1  UNL1        0.0000
   1479 C         -13.5385   16.3761   26.1344 C.ar    1  UNL1        0.0000
   1480 C         -20.0082   28.1677   26.1594 C.ar    1  UNL1        0.0000
   1481 C         -11.0541   22.1393   26.0084 C.ar    1  UNL1        0.0000
   1482 C         -24.4124   23.6817   25.9890 C.2     1  UNL1        0.0000
   1483 C         -18.8042   20.2047   31.6942 C.3     1  UNL1        0.0000
   1484 C         -23.5603   13.1103   33.6123 C.2     1  UNL1        0.0000
   1485 C         -13.6744   17.8310   26.1112 C.3     1  UNL1        0.0000
   1486 C         -20.1010   26.7342   26.1219 C.3     1  UNL1        0.0000
   1487 C         -12.3519   21.5224   26.0552 C.3     1  UNL1        0.0000
   1488 C         -23.0101   24.0960   26.0134 C.2     1  UNL1        0.0000
   1489 C         -13.4992   15.7070   27.3640 C.ar    1  UNL1        0.0000
   1490 C         -24.6460   21.8074   38.0170 C.ar    1  UNL1        0.0000
   1491 C         -10.3988   22.4141   27.2423 C.ar    1  UNL1        0.0000
   1492 C         -29.6802   16.3859   37.8555 C.3     1  UNL1        0.0000
   1493 C         -14.9944   15.3415   37.8700 C.ar    1  UNL1        0.0000
   1494 C         -25.1096   23.4513   27.2014 C.3     1  UNL1        0.0000
   1495 C         -18.1567    8.5697   38.0191 C.ar    1  UNL1        0.0000
   1496 C         -19.9945   28.9189   27.3886 C.ar    1  UNL1        0.0000
   1497 N         -19.9394   28.3201   28.6268 N.pl3   1  UNL1        0.0000
   1498 N         -15.5734   15.1587   36.6310 N.pl3   1  UNL1        0.0000
   1499 N         -14.1839   19.5787   33.7542 N.pl3   1  UNL1        0.0000
   1500 N         -16.0809   10.8421   35.4011 N.pl3   1  UNL1        0.0000
   1501 O         -14.9266   19.8670   31.1871 O.3     1  UNL1        0.0000
   1502 O         -25.3503   16.6324   34.0773 O.3     1  UNL1        0.0000
   1503 O         -18.1001   12.4995   35.7990 O.3     1  UNL1        0.0000
   1504 O         -21.5529   24.9480   29.4893 O.3     1  UNL1        0.0000
   1505 O         -20.7166   23.5611   31.0754 O.3     1  UNL1        0.0000
   1506 O         -19.6520   12.7434   34.1724 O.3     1  UNL1        0.0000
   1507 O         -13.3384   19.5426   29.6096 O.3     1  UNL1        0.0000
   1508 O         -26.1614   18.0195   35.6753 O.3     1  UNL1        0.0000
   1509 O         -16.0109   19.2878   28.6105 O.3     1  UNL1        0.0000
   1510 O         -23.6571   17.1464   36.1756 O.3     1  UNL1        0.0000
   1511 O         -15.0721   21.5751   29.0605 O.3     1  UNL1        0.0000
   1512 O         -25.4093   15.4217   36.6683 O.3     1  UNL1        0.0000
   1513 O         -20.8028   12.2137   36.7630 O.3     1  UNL1        0.0000
   1514 O         -19.0344   24.1092   28.9911 O.3     1  UNL1        0.0000
   1515 O         -19.8489   14.4752   36.2988 O.3     1  UNL1        0.0000
   1516 O         -20.7406   22.3520   28.4737 O.3     1  UNL1        0.0000
   1517 O         -18.4316   11.3595   38.0651 O.3     1  UNL1        0.0000
   1518 O         -20.1841   26.0328   27.2171 O.3     1  UNL1        0.0000
   1519 O         -17.6294   14.1477   38.0599 O.3     1  UNL1        0.0000
   1520 O         -22.4200   24.1970   27.1570 O.2     1  UNL1        0.0000
   1521 O         -12.8912   21.2222   27.2032 O.3     1  UNL1        0.0000
   1522 O         -27.0456   17.2619   37.9910 O.2     1  UNL1        0.0000
   1523 O         -13.6868   18.4679   27.2326 O.3     1  UNL1        0.0000
   1524 O         -24.7774   19.0442   38.0723 O.3     1  UNL1        0.0000
   1525 O         -17.8191   21.6792   29.1116 O.3     1  UNL1        0.0000
   1526 O         -22.5211   14.6754   36.0926 O.3     1  UNL1        0.0000
   1527 O         -15.3650   20.4541   26.1788 O.3     1  UNL1        0.0000
   1528 O         -19.9327   23.5561   26.0121 O.3     1  UNL1        0.0000
   1529 H         -18.7340   16.3674   34.3530 H       1  UNL1        0.0000
   1530 H         -22.6332   10.6796   32.9004 H       1  UNL1        0.0000
   1531 H         -17.8985   25.4492   31.5970 H       1  UNL1        0.0000
   1532 H         -17.6139   18.1249   32.9474 H       1  UNL1        0.0000
   1533 H         -22.5298   18.3153   33.7496 H       1  UNL1        0.0000
   1534 H         -26.0843   13.2392   32.6661 H       1  UNL1        0.0000
   1535 H         -21.1834   16.4691   34.7155 H       1  UNL1        0.0000
   1536 H         -21.4031   20.0823   32.3709 H       1  UNL1        0.0000
   1537 H         -16.8162   23.2532   31.2054 H       1  UNL1        0.0000
   1538 H         -30.4366   23.4459   31.7418 H      59  UNL59       0.0000
   1539 C         -19.4447   19.2048   32.5841 C.ar    1  UNL1        0.0000
   1540 C         -20.6937   17.2405   34.1223 C.ar    1  UNL1        0.0000
   1541 C         -16.2483   24.0581   31.6728 C.ar    1  UNL1        0.0000
   1542 C         -24.2871   12.0628   32.8498 C.2     1  UNL1        0.0000
   1543 C         -20.8324   19.2682   32.8127 C.ar    1  UNL1        0.0000
   1544 C         -19.3100   17.1818   33.9156 C.ar    1  UNL1        0.0000
   1545 C         -16.8622   25.2968   31.8950 C.ar    1  UNL1        0.0000
   1546 C         -23.6693   10.8232   32.6008 C.3     1  UNL1        0.0000
   1547 C         -14.9105   23.8494   32.0281 C.ar    1  UNL1        0.0000
   1548 C         -25.6249   12.2732   32.4672 C.3     1  UNL1        0.0000
   1549 C         -18.6841   18.1608   33.1412 C.ar    1  UNL1        0.0000
   1550 C         -21.4550   18.2817   33.5771 C.ar    1  UNL1        0.0000
   1551 O         -17.5638   20.0621   31.3928 O.3     1  UNL1        0.0000
   1552 O         -24.1842   14.1882   33.9256 O.2     1  UNL1        0.0000
   1553 O         -22.3629   12.8648   34.0014 O.2     1  UNL1        0.0000
   1554 O         -19.5269   21.1537   31.2264 O.3     1  UNL1        0.0000
   1555 N         -16.3265   25.5702   51.1793 N.pl3  31  UNL31       0.0000
   1556 N         -15.8518   24.7907   53.1644 N.pl3  31  UNL31       0.0000
   1557 C         -15.6478   24.3751   50.9953 C.2    31  UNL31       0.0000
   1558 C         -15.3471   23.8900   52.2420 C.2    31  UNL31       0.0000
   1559 C         -14.5507   25.7403   55.0532 C.3    31  UNL31       0.0000
   1560 C         -16.8192   26.4548   50.1158 C.3    31  UNL31       0.0000
   1561 C         -16.4462   25.7991   52.4992 C.3    31  UNL31       0.0000
   1562 C         -15.6371   24.7544   54.6294 C.3    31  UNL31       0.0000
   1563 H         -15.4157   23.9791   50.0145 H      31  UNL31       0.0000
   1564 H         -14.8290   22.9887   52.5462 H      31  UNL31       0.0000
   1565 H         -13.5959   25.5110   54.5630 H      31  UNL31       0.0000
   1566 H         -15.9804   26.7388   49.4714 H      31  UNL31       0.0000
   1567 H         -14.8285   26.7743   54.8127 H      31  UNL31       0.0000
   1568 H         -17.5786   25.9160   49.5374 H      31  UNL31       0.0000
   1569 H         -14.4057   25.6719   56.1397 H      31  UNL31       0.0000
   1570 H         -15.3508   23.7234   54.8769 H      31  UNL31       0.0000
   1571 H         -17.2615   27.3438   50.5760 H      31  UNL31       0.0000
   1572 H         -16.9460   26.6482   52.9488 H      31  UNL31       0.0000
   1573 H         -16.6050   24.9598   55.1029 H      31  UNL31       0.0000
   1574 TI        -29.7934   10.2555   50.4172 Ti      1  UNL1        0.0000
   1575 TI        -18.9630   13.1367   41.0524 Ti      1  UNL1        0.0000
   1576 TI        -25.6967    6.3193   48.5972 Ti      1  UNL1        0.0000
   1577 TI        -24.1856   15.4814   42.8242 Ti      1  UNL1        0.0000
   1578 TI        -25.1841   17.1597   40.9198 Ti      1  UNL1        0.0000
   1579 TI        -23.8085    6.0649   50.5506 Ti      1  UNL1        0.0000
   1580 TI        -28.8442    8.5196   48.5257 Ti      1  UNL1        0.0000
   1581 TI        -20.9508   13.4392   42.8998 Ti      1  UNL1        0.0000
   1582 H         -29.2916   14.1526   50.1977 H       8  UNL8        0.0000
   1583 H         -18.1542    9.2306   41.3731 H       1  UNL1        0.0000
   1584 H         -33.7533    9.4988   50.0347 H       9  UNL9        0.0000
   1585 H         -15.5808   15.1410   41.2530 H       1  UNL1        0.0000
   1586 H         -22.8329    2.0304   50.1647 H       5  UNL5        0.0000
   1587 H         -29.2427   16.5698   41.2418 H       1  UNL1        0.0000
   1588 H         -24.6897   15.5229   39.0467 H       1  UNL1        0.0000
   1589 H         -20.8385   12.8940   39.3524 H       1  UNL1        0.0000
   1590 H         -23.2986    5.3978   45.0395 H       1  UNL1        0.0000
   1591 H         -25.9090   17.3184   46.4431 H       1  UNL1        0.0000
   1592 H         -32.9169   11.9082   48.1698 H       1  UNL1        0.0000
   1593 H         -16.2082   11.0524   43.3584 H       1  UNL1        0.0000
   1594 H         -30.6157   10.4608   44.8360 H       1  UNL1        0.0000
   1595 H         -28.2842   18.9876   43.2730 H       1  UNL1        0.0000
   1596 H         -24.7919   20.2626   41.7753 H       1  UNL1        0.0000
   1597 H         -18.3120    7.2118   42.5756 H       1  UNL1        0.0000
   1598 H         -22.0929   15.1615   41.4855 H       1  UNL1        0.0000
   1599 H         -26.7774    8.1677   49.8908 H       1  UNL1        0.0000
   1600 H         -19.5738    7.9998   48.9402 H      10  UNL10       0.0000
   1601 H         -21.0549    7.5307   49.6876 H      10  UNL10       0.0000
   1602 H         -18.9997   12.4334   47.8413 H       1  UNL1        0.0000
   1603 H         -19.5694   12.7920   46.2228 H       1  UNL1        0.0000
   1604 H         -20.0626    3.0450   48.7502 H       1  UNL1        0.0000
   1605 H         -21.3418    4.1455   49.2076 H       1  UNL1        0.0000
   1606 C         -18.3849   12.3954   43.9159 C.3     1  UNL1        0.0000
   1607 C         -30.7540   10.5169   47.5702 C.3     1  UNL1        0.0000
   1608 C         -23.1162    5.3086   47.6725 C.3     1  UNL1        0.0000
   1609 C         -26.1217   17.4519   43.7835 C.3     1  UNL1        0.0000
   1610 C         -17.4889   11.7911   44.9111 C.ar    1  UNL1        0.0000
   1611 C         -31.6859   11.1419   46.5931 C.2     1  UNL1        0.0000
   1612 C         -22.1760    4.6942   46.7253 C.ar    1  UNL1        0.0000
   1613 C         -27.0115   18.0987   44.7833 C.ar    1  UNL1        0.0000
   1614 C         -17.7377   11.8660   46.3175 C.ar    1  UNL1        0.0000
   1615 C         -31.4695   11.0219   45.2051 C.3     1  UNL1        0.0000
   1616 C         -21.0466    3.9339   47.1784 C.ar    1  UNL1        0.0000
   1617 C         -28.1062   18.8717   44.3384 C.ar    1  UNL1        0.0000
   1618 C         -26.7570   17.9280   46.1382 C.ar    1  UNL1        0.0000
   1619 C         -22.4238    4.8264   45.3414 C.ar    1  UNL1        0.0000
   1620 C         -16.3552   11.0921   44.4354 C.ar    1  UNL1        0.0000
   1621 C         -32.7861   11.8343   47.0918 C.2     1  UNL1        0.0000
   1622 C         -18.1732    9.3097   39.2290 C.ar    1  UNL1        0.0000
   1623 C         -24.6429   21.1013   39.2540 C.ar    1  UNL1        0.0000
   1624 C         -15.6887   15.0728   39.1030 C.ar    1  UNL1        0.0000
   1625 C         -29.0471   16.6153   39.0836 C.2     1  UNL1        0.0000
   1626 C         -23.4388   13.1382   44.7888 C.3     1  UNL1        0.0000
   1627 C         -28.1949    6.0439   46.7069 C.2     1  UNL1        0.0000
   1628 C         -18.3090   10.7646   39.2058 C.3     1  UNL1        0.0000
   1629 C         -24.7356   19.6678   39.2165 C.3     1  UNL1        0.0000
   1630 C         -16.9866   14.4560   39.1498 C.3     1  UNL1        0.0000
   1631 C         -27.6447   17.0296   39.1080 C.2     1  UNL1        0.0000
   1632 C         -18.1338    8.6406   40.4586 C.ar    1  UNL1        0.0000
   1633 C         -29.2806   14.7410   51.1116 C.2     8  UNL8        0.0000
   1634 C         -15.0334   15.3476   40.3369 C.ar    1  UNL1        0.0000
   1635 C         -34.3148    9.3195   50.9501 C.3    32  UNL32       0.0000
   1636 C         -19.6291    8.2751   50.9646 C.2    10  UNL10       0.0000
   1637 C         -29.7442   16.3848   40.2960 C.3     1  UNL1        0.0000
   1638 C         -22.7913    1.5032   51.1137 C.2     5  UNL5        0.0000
   1639 C         -24.6291   21.8525   40.4833 C.ar    1  UNL1        0.0000
   1640 N         -24.5740   21.2536   41.7214 N.pl3   1  UNL1        0.0000
   1641 N         -20.2081    8.0923   49.7256 N.pl3  10  UNL10       0.0000
   1642 N         -18.8185   12.5123   46.8488 N.pl3   1  UNL1        0.0000
   1643 N         -20.7156    3.7757   48.4958 N.pl3   1  UNL1        0.0000
   1644 O         -19.5613   12.8005   44.2817 O.3     1  UNL1        0.0000
   1645 O         -29.9850    9.5660   47.1719 O.3     1  UNL1        0.0000
   1646 O         -22.7348    5.4331   48.8936 O.3     1  UNL1        0.0000
   1647 O         -26.1875   17.8816   42.5839 O.3     1  UNL1        0.0000
   1648 O         -25.3512   16.4947   44.1700 O.3     1  UNL1        0.0000
   1649 O         -24.2867    5.6770   47.2670 O.3     1  UNL1        0.0000
   1650 O         -17.9731   12.4762   42.7042 O.3     1  UNL1        0.0000
   1651 O         -30.7960   10.9531   48.7699 O.3     1  UNL1        0.0000
   1652 O         -20.6456   12.2213   41.7051 O.3     1  UNL1        0.0000
   1653 O         -28.2918   10.0799   49.2702 O.3     1  UNL1        0.0000
   1654 O         -19.7068   14.5086   42.1551 O.3     1  UNL1        0.0000
   1655 O         -30.0440    8.3553   49.7629 O.3     1  UNL1        0.0000
   1656 O         -25.4374    5.1473   49.8576 O.3     1  UNL1        0.0000
   1657 O         -23.6690   17.0427   42.0857 O.3     1  UNL1        0.0000
   1658 O         -24.4835    7.4088   49.3934 O.3     1  UNL1        0.0000
   1659 O         -25.3752   15.2856   41.5683 O.3     1  UNL1        0.0000
   1660 O         -23.0662    4.2931   51.1597 O.3     1  UNL1        0.0000
   1661 O         -24.8187   18.9663   40.3117 O.3     1  UNL1        0.0000
   1662 O         -22.2641    7.0813   51.1546 O.3     1  UNL1        0.0000
   1663 O         -27.0547   17.1306   40.2516 O.2     1  UNL1        0.0000
   1664 O         -17.5259   14.1558   40.2978 O.3     1  UNL1        0.0000
   1665 O         -31.6802   10.1954   51.0856 O.3     1  UNL1        0.0000
   1666 O         -18.3215   11.4015   40.3272 O.3     1  UNL1        0.0000
   1667 O         -29.4120   11.9778   51.1669 O.3     1  UNL1        0.0000
   1668 O         -22.4538   14.6128   42.2062 O.3     1  UNL1        0.0000
   1669 O         -27.1557    7.6090   49.1872 O.3     1  UNL1        0.0000
   1670 O         -19.9997   13.3877   39.2734 O.3     1  UNL1        0.0000
   1671 O         -24.5673   16.4897   39.1067 O.3     1  UNL1        0.0000
   1672 H         -23.3687    9.3009   47.4476 H       1  UNL1        0.0000
   1673 H         -27.2679    3.6131   45.9950 H       1  UNL1        0.0000
   1674 H         -22.5331   18.3828   44.6916 H       1  UNL1        0.0000
   1675 H         -22.2486   11.0585   46.0420 H       1  UNL1        0.0000
   1676 H         -27.1645   11.2489   46.8442 H       1  UNL1        0.0000
   1677 H         -30.7189    6.1728   45.7607 H       1  UNL1        0.0000
   1678 H         -25.8181    9.4027   47.8101 H       1  UNL1        0.0000
   1679 H         -26.0377   13.0158   45.4655 H       1  UNL1        0.0000
   1680 H         -21.4509   16.1868   44.3000 H       1  UNL1        0.0000
   1681 H         -35.0712   16.3795   44.8364 H      59  UNL59       0.0000
   1682 C         -24.0794   12.1384   45.6787 C.ar    1  UNL1        0.0000
   1683 C         -25.3284   10.1740   47.2169 C.ar    1  UNL1        0.0000
   1684 C         -20.8829   16.9917   44.7674 C.ar    1  UNL1        0.0000
   1685 C         -28.9218    4.9964   45.9444 C.2     1  UNL1        0.0000
   1686 C         -25.4670   12.2017   45.9073 C.ar    1  UNL1        0.0000
   1687 C         -23.9447   10.1153   47.0103 C.ar    1  UNL1        0.0000
   1688 C         -21.4969   18.2304   44.9896 C.ar    1  UNL1        0.0000
   1689 C         -28.3040    3.7567   45.6954 C.3     1  UNL1        0.0000
   1690 C         -19.5451   16.7829   45.1227 C.ar    1  UNL1        0.0000
   1691 C         -30.2595    5.2067   45.5618 C.3     1  UNL1        0.0000
   1692 C         -23.3187   11.0944   46.2358 C.ar    1  UNL1        0.0000
   1693 C         -26.0897   11.2153   46.6717 C.ar    1  UNL1        0.0000
   1694 O         -22.1985   12.9957   44.4874 O.3     1  UNL1        0.0000
   1695 O         -28.8188    7.1218   47.0202 O.2     1  UNL1        0.0000
   1696 O         -26.9975    5.7984   47.0960 O.2     1  UNL1        0.0000
   1697 O         -24.1615   14.0873   44.3210 O.3     1  UNL1        0.0000
   1698 N         -20.9612   18.5037   64.2739 N.pl3  34  UNL34       0.0000
   1699 N         -20.4865   17.7243   66.2590 N.pl3  34  UNL34       0.0000
   1700 C         -20.2824   17.3086   64.0899 C.2    34  UNL34       0.0000
   1701 C         -19.9818   16.8236   65.3366 C.2    34  UNL34       0.0000
   1702 C         -19.1853   18.6738   68.1478 C.3    34  UNL34       0.0000
   1703 C         -21.4538   19.3884   63.2104 C.3    34  UNL34       0.0000
   1704 C         -21.0809   18.7327   65.5938 C.3    34  UNL34       0.0000
   1705 C         -20.2718   17.6880   67.7240 C.3    34  UNL34       0.0000
   1706 H         -20.0503   16.9126   63.1091 H      34  UNL34       0.0000
   1707 H         -19.4636   15.9223   65.6408 H      34  UNL34       0.0000
   1708 H         -18.2306   18.4445   67.6576 H      34  UNL34       0.0000
   1709 H         -20.6150   19.6723   62.5660 H      34  UNL34       0.0000
   1710 H         -19.4632   19.7078   67.9073 H      34  UNL34       0.0000
   1711 H         -22.2132   18.8496   62.6320 H      34  UNL34       0.0000
   1712 H         -19.0404   18.6055   69.2343 H      34  UNL34       0.0000
   1713 H         -19.9855   16.6569   67.9715 H      34  UNL34       0.0000
   1714 H         -21.8961   20.2774   63.6707 H      34  UNL34       0.0000
   1715 H         -21.5806   19.5817   66.0434 H      34  UNL34       0.0000
   1716 H         -21.2396   17.8933   68.1975 H      34  UNL34       0.0000
   1717 TI        -22.4065   46.0673   11.0768 Ti      1  UNL1        0.0000
   1718 TI        -11.5761   48.9485    1.7120 Ti      1  UNL1        0.0000
   1719 TI        -18.3098   42.1311    9.2569 Ti      1  UNL1        0.0000
   1720 TI        -16.7986   51.2932    3.4838 Ti      1  UNL1        0.0000
   1721 TI        -17.7972   52.9715    1.5794 Ti      1  UNL1        0.0000
   1722 TI        -16.4216   41.8767   11.2102 Ti      1  UNL1        0.0000
   1723 TI        -21.4573   44.3314    9.1854 Ti      1  UNL1        0.0000
   1724 TI        -13.5639   49.2511    3.5595 Ti      1  UNL1        0.0000
   1725 H         -21.9047   49.9644   10.8574 H       1  UNL1        0.0000
   1726 H         -10.7673   45.0425    2.0327 H       1  UNL1        0.0000
   1727 H         -26.3664   45.3107   10.6944 H       1  UNL1        0.0000
   1728 H          -8.1939   50.9528    1.9127 H       1  UNL1        0.0000
   1729 H         -15.4460   37.8422   10.8243 H       1  UNL1        0.0000
   1730 H         -21.8557   52.3816    1.9015 H       1  UNL1        0.0000
   1731 H         -17.3028   51.3347   -0.2936 H       1  UNL1        0.0000
   1732 H         -13.4516   48.7058    0.0121 H       1  UNL1        0.0000
   1733 H         -15.9117   41.2096    5.6991 H       1  UNL1        0.0000
   1734 H         -18.5221   53.1302    7.1028 H       1  UNL1        0.0000
   1735 H         -25.5299   47.7200    8.8295 H       1  UNL1        0.0000
   1736 H          -8.8213   46.8642    4.0180 H       1  UNL1        0.0000
   1737 H         -23.2288   46.2726    5.4956 H       1  UNL1        0.0000
   1738 H         -20.8973   54.7994    3.9327 H       1  UNL1        0.0000
   1739 H         -17.4050   56.0744    2.4349 H       1  UNL1        0.0000
   1740 H         -10.9251   43.0236    3.2352 H       1  UNL1        0.0000
   1741 H         -14.7060   50.9734    2.1452 H       1  UNL1        0.0000
   1742 H         -19.3905   43.9795   10.5505 H       1  UNL1        0.0000
   1743 H         -12.1869   43.8116    9.5999 H       1  UNL1        0.0000
   1744 H         -13.6680   43.3425   10.3472 H       1  UNL1        0.0000
   1745 H         -11.6128   48.2452    8.5010 H       1  UNL1        0.0000
   1746 H         -12.1825   48.6038    6.8824 H       1  UNL1        0.0000
   1747 H         -12.6757   38.8568    9.4099 H       1  UNL1        0.0000
   1748 H         -13.9549   39.9574    9.8673 H       1  UNL1        0.0000
   1749 C         -10.9980   48.2073    4.5756 C.3     1  UNL1        0.0000
   1750 C         -23.3671   46.3287    8.2298 C.3     1  UNL1        0.0000
   1751 C         -15.7293   41.1204    8.3321 C.3     1  UNL1        0.0000
   1752 C         -18.7348   53.2637    4.4432 C.3     1  UNL1        0.0000
   1753 C         -10.1020   47.6030    5.5708 C.ar    1  UNL1        0.0000
   1754 C         -24.2990   46.9537    7.2528 C.2     1  UNL1        0.0000
   1755 C         -14.7891   40.5060    7.3850 C.ar    1  UNL1        0.0000
   1756 C         -19.6246   53.9105    5.4430 C.2     1  UNL1        0.0000
   1757 C         -10.3508   47.6779    6.9772 C.ar    1  UNL1        0.0000
   1758 C         -24.0826   46.8337    5.8647 C.3     1  UNL1        0.0000
   1759 C         -13.6597   39.7457    7.8380 C.ar    1  UNL1        0.0000
   1760 C         -20.7193   54.6835    4.9981 C.3     1  UNL1        0.0000
   1761 C         -19.3701   53.7398    6.7979 C.2     1  UNL1        0.0000
   1762 C         -15.0368   40.6382    6.0010 C.ar    1  UNL1        0.0000
   1763 C          -8.9683   46.9040    5.0950 C.ar    1  UNL1        0.0000
   1764 C         -25.3991   47.6461    7.7514 C.2     1  UNL1        0.0000
   1765 C         -10.7862   45.1215   -0.1114 C.2     1  UNL1        0.0000
   1766 C         -17.2560   56.9131   -0.0864 C.2     1  UNL1        0.0000
   1767 C          -8.3018   50.8846   -0.2374 C.2     1  UNL1        0.0000
   1768 C         -21.6601   52.4271   -0.2568 C.2     1  UNL1        0.0000
   1769 C         -16.0519   48.9500    5.4484 C.3     1  UNL1        0.0000
   1770 C         -20.8080   41.8557    7.3666 C.2     1  UNL1        0.0000
   1771 C         -10.9221   46.5764   -0.1346 C.2     1  UNL1        0.0000
   1772 C         -17.3487   55.4796   -0.1239 C.2     1  UNL1        0.0000
   1773 C          -9.5996   50.2678   -0.1905 C.2     1  UNL1        0.0000
   1774 C         -20.2578   52.8414   -0.2323 C.2     1  UNL1        0.0000
   1775 C         -10.7469   44.4524    1.1183 C.2     1  UNL1        0.0000
   1776 C         -21.8937   50.5528   11.7713 C.3     1  UNL1        0.0000
   1777 C          -7.6465   51.1594    0.9966 C.2     1  UNL1        0.0000
   1778 C         -26.9279   45.1313   11.6097 C.3     1  UNL1        0.0000
   1779 C         -12.2422   44.0869   11.6242 C.ar    1  UNL1        0.0000
   1780 C         -22.3573   52.1967    0.9557 C.3     1  UNL1        0.0000
   1781 C         -15.4044   37.3150   11.7734 C.ar    1  UNL1        0.0000
   1782 C         -17.2422   57.6643    1.1429 C.3     1  UNL1        0.0000
   1783 N         -17.1871   57.0655    2.3811 N.3     1  UNL1        0.0000
   1784 N         -12.8212   43.9041   10.3853 N.pl3   1  UNL1        0.0000
   1785 N         -11.4316   48.3241    7.5085 N.pl3   1  UNL1        0.0000
   1786 N         -13.3287   39.5875    9.1554 N.pl3   1  UNL1        0.0000
   1787 O         -12.1743   48.6124    4.9414 O.3     1  UNL1        0.0000
   1788 O         -22.5981   45.3778    7.8315 O.3     1  UNL1        0.0000
   1789 O         -15.3479   41.2449    9.5532 O.3     1  UNL1        0.0000
   1790 O         -18.8006   53.6934    3.2436 O.3     1  UNL1        0.0000
   1791 O         -17.9643   52.3065    4.8296 O.3     1  UNL1        0.0000
   1792 O         -16.8998   41.4888    7.9266 O.3     1  UNL1        0.0000
   1793 O         -10.5861   48.2880    3.3638 O.3     1  UNL1        0.0000
   1794 O         -23.4091   46.7649    9.4295 O.3     1  UNL1        0.0000
   1795 O         -13.2586   48.0332    2.3648 O.3     1  UNL1        0.0000
   1796 O         -20.9049   45.8918    9.9299 O.3     1  UNL1        0.0000
   1797 O         -12.3199   50.3204    2.8148 O.3     1  UNL1        0.0000
   1798 O         -22.6570   44.1671   10.4226 O.3     1  UNL1        0.0000
   1799 O         -18.0505   40.9591   10.5173 O.3     1  UNL1        0.0000
   1800 O         -16.2821   52.8545    2.7454 O.3     1  UNL1        0.0000
   1801 O         -17.0966   43.2206   10.0531 O.3     1  UNL1        0.0000
   1802 O         -17.9883   51.0974    2.2279 O.3     1  UNL1        0.0000
   1803 O         -15.6793   40.1049   11.8193 O.3     1  UNL1        0.0000
   1804 O         -17.4318   54.7782    0.9713 O.2     1  UNL1        0.0000
   1805 O         -14.8772   42.8931   11.8142 O.3     1  UNL1        0.0000
   1806 O         -19.6678   52.9424    0.9113 O.2     1  UNL1        0.0000
   1807 O         -10.1390   49.9676    0.9575 O.2     1  UNL1        0.0000
   1808 O         -24.2933   46.0072   11.7453 O.2     1  UNL1        0.0000
   1809 O         -10.9345   47.2133    0.9869 O.2     1  UNL1        0.0000
   1810 O         -22.0251   47.7896   11.8266 O.2     1  UNL1        0.0000
   1811 O         -15.0669   50.4246    2.8659 O.3     1  UNL1        0.0000
   1812 O         -19.7688   43.4208    9.8469 O.3     1  UNL1        0.0000
   1813 O         -12.6127   49.1995   -0.0669 O.3     1  UNL1        0.0000
   1814 O         -17.1804   52.3015   -0.2337 O.3     1  UNL1        0.0000
   1815 H         -15.9818   45.1127    8.1072 H       1  UNL1        0.0000
   1816 H         -19.8810   39.4249    6.6546 H       1  UNL1        0.0000
   1817 H         -15.1462   54.1946    5.3513 H      11  UNL11       0.0000
   1818 H         -14.8617   46.8703    6.7016 H       1  UNL1        0.0000
   1819 H         -19.7775   47.0607    7.5039 H       1  UNL1        0.0000
   1820 H         -23.3320   41.9846    6.4204 H       1  UNL1        0.0000
   1821 H         -18.4312   45.2145    8.4698 H       1  UNL1        0.0000
   1822 H         -18.6508   48.8277    6.1252 H       1  UNL1        0.0000
   1823 H         -14.0640   51.9986    4.9597 H      11  UNL11       0.0000
   1824 H         -27.6843   52.1913    5.4960 H      59  UNL59       0.0000
   1825 C         -16.6925   47.9502    6.3384 C.ar    1  UNL1        0.0000
   1826 C         -17.9415   45.9858    7.8766 C.ar    1  UNL1        0.0000
   1827 C         -13.4960   52.8035    5.4271 C.2    11  UNL11       0.0000
   1828 C         -21.5348   40.8082    6.6041 C.2     1  UNL1        0.0000
   1829 C         -18.0801   48.0136    6.5669 C.ar    1  UNL1        0.0000
   1830 C         -16.5578   45.9271    7.6699 C.ar    1  UNL1        0.0000
   1831 C         -14.1099   54.0422    5.6492 C.3    11  UNL11       0.0000
   1832 C         -20.9171   39.5685    6.3551 C.3     1  UNL1        0.0000
   1833 C         -12.1582   52.5947    5.7824 C.2    11  UNL11       0.0000
   1834 C         -22.8726   41.0185    6.2215 C.3     1  UNL1        0.0000
   1835 C         -15.9318   46.9062    6.8955 C.ar    1  UNL1        0.0000
   1836 C         -18.7028   47.0271    7.3313 C.ar    1  UNL1        0.0000
   1837 O         -14.8116   48.8075    5.1471 O.3     1  UNL1        0.0000
   1838 O         -21.4319   42.9336    7.6799 O.2     1  UNL1        0.0000
   1839 O         -19.6106   41.6102    7.7556 O.2     1  UNL1        0.0000
   1840 O         -16.7746   49.8991    4.9807 O.3     1  UNL1        0.0000
   1841 N         -13.5743   54.3156   24.9336 N.pl3  36  UNL36       0.0000
   1842 N         -13.0996   53.5361   26.9186 N.pl3  36  UNL36       0.0000
   1843 C         -12.8955   53.1205   24.7496 C.2    36  UNL36       0.0000
   1844 C         -12.5949   52.6354   25.9962 C.2    36  UNL36       0.0000
   1845 C         -11.7984   54.4856   28.8075 C.3    36  UNL36       0.0000
   1846 C         -14.0669   55.2002   23.8701 C.3    36  UNL36       0.0000
   1847 C         -13.6940   54.5445   26.2534 C.3    36  UNL36       0.0000
   1848 C         -12.8849   53.4998   28.3837 C.3    36  UNL36       0.0000
   1849 H         -12.6634   52.7244   23.7688 H      36  UNL36       0.0000
   1850 H         -12.0767   51.7341   26.3004 H      36  UNL36       0.0000
   1851 H         -10.8437   54.2563   28.3173 H      36  UNL36       0.0000
   1852 H         -13.2281   55.4842   23.2256 H      36  UNL36       0.0000
   1853 H         -12.0763   55.5196   28.5669 H      36  UNL36       0.0000
   1854 H         -14.8263   54.6614   23.2916 H      36  UNL36       0.0000
   1855 H         -11.6535   54.4173   29.8940 H      36  UNL36       0.0000
   1856 H         -12.5986   52.4687   28.6312 H      36  UNL36       0.0000
   1857 H         -14.5092   56.0892   24.3303 H      36  UNL36       0.0000
   1858 H         -14.1937   55.3935   26.7030 H      36  UNL36       0.0000
   1859 H         -13.8527   53.7051   28.8572 H      36  UNL36       0.0000
   1860 TI        -27.0412   39.0008   24.1715 Ti      1  UNL1        0.0000
   1861 TI        -16.2107   41.8821   14.8066 Ti      1  UNL1        0.0000
   1862 TI        -22.9445   35.0647   22.3515 Ti      1  UNL1        0.0000
   1863 TI        -21.4333   44.2268   16.5784 Ti      1  UNL1        0.0000
   1864 TI        -22.4319   45.9051   14.6741 Ti      1  UNL1        0.0000
   1865 TI        -21.0563   34.8103   24.3048 Ti      1  UNL1        0.0000
   1866 TI        -26.0920   37.2650   22.2800 Ti      1  UNL1        0.0000
   1867 TI        -18.1985   42.1846   16.6541 Ti      1  UNL1        0.0000
   1868 H         -26.5393   42.8979   23.9520 H       1  UNL1        0.0000
   1869 H         -15.4019   37.9760   15.1273 H       1  UNL1        0.0000
   1870 H         -31.0011   38.2442   23.7890 H       1  UNL1        0.0000
   1871 H         -12.8285   43.8864   15.0073 H       1  UNL1        0.0000
   1872 H         -20.0807   30.7758   23.9189 H       1  UNL1        0.0000
   1873 H         -26.4904   45.3152   14.9961 H       1  UNL1        0.0000
   1874 H         -21.9374   44.2683   12.8010 H       1  UNL1        0.0000
   1875 H         -18.0862   41.6394   13.1067 H       1  UNL1        0.0000
   1876 H         -20.5464   34.1432   18.7937 H       1  UNL1        0.0000
   1877 H         -23.1567   46.0638   20.1974 H       1  UNL1        0.0000
   1878 H         -30.1646   40.6536   21.9241 H       1  UNL1        0.0000
   1879 H         -13.4559   39.7977   17.1126 H       1  UNL1        0.0000
   1880 H         -27.8635   39.2061   18.5902 H       1  UNL1        0.0000
   1881 H         -25.5319   47.7330   17.0273 H       1  UNL1        0.0000
   1882 H         -22.0396   49.0079   15.5295 H       1  UNL1        0.0000
   1883 H         -15.5597   35.9572   16.3298 H       1  UNL1        0.0000
   1884 H         -19.3407   43.9069   15.2398 H       1  UNL1        0.0000
   1885 H         -24.0252   36.9131   23.6451 H       1  UNL1        0.0000
   1886 H         -16.8215   36.7452   22.6945 H       1  UNL1        0.0000
   1887 H         -18.3027   36.2761   23.4418 H       1  UNL1        0.0000
   1888 H         -16.2474   41.1788   21.5956 H       1  UNL1        0.0000
   1889 H         -16.8171   41.5374   19.9771 H       1  UNL1        0.0000
   1890 H         -17.3104   31.7903   22.5045 H       1  UNL1        0.0000
   1891 H         -18.5895   32.8909   22.9619 H       1  UNL1        0.0000
   1892 C         -15.6327   41.1408   17.6702 C.3     1  UNL1        0.0000
   1893 C         -28.0017   39.2622   21.3244 C.3     1  UNL1        0.0000
   1894 C         -20.3640   34.0540   21.4267 C.3     1  UNL1        0.0000
   1895 C         -23.3694   46.1973   17.5378 C.3     1  UNL1        0.0000
   1896 C         -14.7366   40.5365   18.6654 C.ar    1  UNL1        0.0000
   1897 C         -28.9336   39.8873   20.3474 C.2     1  UNL1        0.0000
   1898 C         -19.4238   33.4396   20.4796 C.ar    1  UNL1        0.0000
   1899 C         -24.2592   46.8441   18.5376 C.2     1  UNL1        0.0000
   1900 C         -14.9854   40.6114   20.0718 C.ar    1  UNL1        0.0000
   1901 C         -28.7172   39.7673   18.9594 C.3     1  UNL1        0.0000
   1902 C         -18.2943   32.6793   20.9326 C.ar    1  UNL1        0.0000
   1903 C         -25.3540   47.6171   18.0927 C.3     1  UNL1        0.0000
   1904 C         -24.0047   46.6733   19.8925 C.2     1  UNL1        0.0000
   1905 C         -19.6715   33.5717   19.0956 C.ar    1  UNL1        0.0000
   1906 C         -13.6030   39.8375   18.1897 C.ar    1  UNL1        0.0000
   1907 C         -30.0338   40.5797   20.8461 C.2     1  UNL1        0.0000
   1908 C         -15.4209   38.0551   12.9832 C.ar    1  UNL1        0.0000
   1909 C         -21.8906   49.8467   13.0082 C.2     1  UNL1        0.0000
   1910 C         -12.9365   43.8182   12.8572 C.ar    1  UNL1        0.0000
   1911 C         -26.2948   45.3606   12.8378 C.2     1  UNL1        0.0000
   1912 C         -20.6866   41.8836   18.5430 C.3     1  UNL1        0.0000
   1913 C         -25.4427   34.7892   20.4612 C.2     1  UNL1        0.0000
   1914 C         -15.5567   39.5099   12.9600 C.3     1  UNL1        0.0000
   1915 C         -21.9834   48.4132   12.9708 C.2     1  UNL1        0.0000
   1916 C         -14.2343   43.2014   12.9041 C.3     1  UNL1        0.0000
   1917 C         -24.8925   45.7750   12.8623 C.2     1  UNL1        0.0000
   1918 C         -15.3815   37.3860   14.2129 C.ar    1  UNL1        0.0000
   1919 C         -26.5284   43.4863   24.8659 C.3     1  UNL1        0.0000
   1920 C         -12.2812   44.0930   14.0912 C.ar    1  UNL1        0.0000
   1921 C         -31.5626   38.0648   24.7044 C.3     1  UNL1        0.0000
   1922 C         -16.8768   37.0205   24.7189 C.ar    1  UNL1        0.0000
   1923 C         -26.9920   45.1302   14.0503 C.3     1  UNL1        0.0000
   1924 C         -20.0390   30.2486   24.8680 C.ar    1  UNL1        0.0000
   1925 C         -21.8768   50.5979   14.2375 C.3     1  UNL1        0.0000
   1926 N         -21.8218   49.9990   15.4757 N.3     1  UNL1        0.0000
   1927 N         -17.4558   36.8376   23.4799 N.pl3   1  UNL1        0.0000
   1928 N         -16.0663   41.2577   20.6031 N.pl3   1  UNL1        0.0000
   1929 N         -17.9633   32.5211   22.2500 N.pl3   1  UNL1        0.0000
   1930 O         -16.8090   41.5459   18.0360 O.3     1  UNL1        0.0000
   1931 O         -27.2327   38.3114   20.9261 O.3     1  UNL1        0.0000
   1932 O         -19.9825   34.1784   22.6479 O.3     1  UNL1        0.0000
   1933 O         -23.4353   46.6270   16.3382 O.3     1  UNL1        0.0000
   1934 O         -22.5990   45.2401   17.9243 O.3     1  UNL1        0.0000
   1935 O         -21.5344   34.4224   21.0212 O.3     1  UNL1        0.0000
   1936 O         -15.2208   41.2216   16.4584 O.3     1  UNL1        0.0000
   1937 O         -28.0437   39.6985   22.5241 O.3     1  UNL1        0.0000
   1938 O         -17.8933   40.9667   15.4594 O.3     1  UNL1        0.0000
   1939 O         -25.5395   38.8253   23.0245 O.3     1  UNL1        0.0000
   1940 O         -16.9545   43.2540   15.9094 O.3     1  UNL1        0.0000
   1941 O         -27.2917   37.1006   23.5172 O.3     1  UNL1        0.0000
   1942 O         -22.6852   33.8927   23.6119 O.3     1  UNL1        0.0000
   1943 O         -20.9167   45.7881   15.8400 O.3     1  UNL1        0.0000
   1944 O         -21.7312   36.1542   23.1477 O.3     1  UNL1        0.0000
   1945 O         -22.6230   44.0310   15.3225 O.3     1  UNL1        0.0000
   1946 O         -20.3140   33.0385   24.9139 O.3     1  UNL1        0.0000
   1947 O         -22.0665   47.7117   14.0659 O.2     1  UNL1        0.0000
   1948 O         -19.5118   35.8266   24.9088 O.3     1  UNL1        0.0000
   1949 O         -24.3024   45.8760   14.0059 O.2     1  UNL1        0.0000
   1950 O         -14.7736   42.9012   14.0521 O.3     1  UNL1        0.0000
   1951 O         -28.9280   38.9408   24.8399 O.2     1  UNL1        0.0000
   1952 O         -15.5692   40.1469   14.0815 O.3     1  UNL1        0.0000
   1953 O         -26.6598   40.7231   24.9212 O.2     1  UNL1        0.0000
   1954 O         -19.7015   43.3582   15.9605 O.3     1  UNL1        0.0000
   1955 O         -24.4034   36.3544   22.9415 O.3     1  UNL1        0.0000
   1956 O         -17.2474   42.1330   13.0277 O.3     1  UNL1        0.0000
   1957 O         -21.8150   45.2351   12.8609 O.3     1  UNL1        0.0000
   1958 H         -20.6164   38.0463   21.2018 H       1  UNL1        0.0000
   1959 H         -24.5156   32.3585   19.7492 H       1  UNL1        0.0000
   1960 H         -19.7809   47.1282   18.4459 H      12  UNL12       0.0000
   1961 H         -19.4963   39.8039   19.7962 H       1  UNL1        0.0000
   1962 H         -24.4122   39.9943   20.5985 H       1  UNL1        0.0000
   1963 H         -27.9667   34.9182   19.5150 H       1  UNL1        0.0000
   1964 H         -23.0658   38.1481   21.5644 H       1  UNL1        0.0000
   1965 H         -23.2855   41.7612   19.2198 H       1  UNL1        0.0000
   1966 H         -18.6986   44.9322   18.0543 H      12  UNL12       0.0000
   1967 H         -32.3190   45.1249   18.5907 H      59  UNL59       0.0000
   1968 C         -21.3271   40.8838   19.4330 C.ar    1  UNL1        0.0000
   1969 C         -22.5761   38.9194   20.9712 C.ar    1  UNL1        0.0000
   1970 C         -18.1306   45.7370   18.5217 C.2    12  UNL12       0.0000
   1971 C         -26.1695   33.7418   19.6987 C.2     1  UNL1        0.0000
   1972 C         -22.7147   40.9471   19.6615 C.ar    1  UNL1        0.0000
   1973 C         -21.1924   38.8607   20.7645 C.ar    1  UNL1        0.0000
   1974 C         -18.7446   46.9758   18.7439 C.3    12  UNL12       0.0000
   1975 C         -25.5517   32.5021   19.4497 C.3     1  UNL1        0.0000
   1976 C         -16.7929   45.5283   18.8770 C.2    12  UNL12       0.0000
   1977 C         -27.5073   33.9521   19.3161 C.3     1  UNL1        0.0000
   1978 C         -20.5665   39.8398   19.9901 C.ar    1  UNL1        0.0000
   1979 C         -23.3374   39.9607   20.4260 C.ar    1  UNL1        0.0000
   1980 O         -19.4462   41.7410   18.2417 O.3     1  UNL1        0.0000
   1981 O         -26.0666   35.8672   20.7745 O.2     1  UNL1        0.0000
   1982 O         -24.2452   34.5437   20.8503 O.2     1  UNL1        0.0000
   1983 O         -21.4093   42.8327   18.0753 O.3     1  UNL1        0.0000
   1984 N         -18.2089   47.2491   38.0282 N.pl3  38  UNL38       0.0000
   1985 N         -17.7342   46.4697   40.0132 N.pl3  38  UNL38       0.0000
   1986 C         -17.5301   46.0540   37.8442 C.2    38  UNL38       0.0000
   1987 C         -17.2295   45.5690   39.0908 C.2    38  UNL38       0.0000
   1988 C         -16.4331   47.4192   41.9021 C.3    38  UNL38       0.0000
   1989 C         -18.7016   48.1337   36.9647 C.3    38  UNL38       0.0000
   1990 C         -18.3286   47.4781   39.3480 C.3    38  UNL38       0.0000
   1991 C         -17.5195   46.4334   41.4783 C.3    38  UNL38       0.0000
   1992 H         -17.2981   45.6580   36.8634 H      38  UNL38       0.0000
   1993 H         -16.7114   44.6677   39.3950 H      38  UNL38       0.0000
   1994 H         -15.4783   47.1899   41.4119 H      38  UNL38       0.0000
   1995 H         -17.8628   48.4177   36.3202 H      38  UNL38       0.0000
   1996 H         -16.7109   48.4532   41.6615 H      38  UNL38       0.0000
   1997 H         -19.4610   47.5949   36.3862 H      38  UNL38       0.0000
   1998 H         -16.2881   47.3509   42.9886 H      38  UNL38       0.0000
   1999 H         -17.2332   45.4023   41.7258 H      38  UNL38       0.0000
   2000 H         -19.1439   49.0227   37.4249 H      38  UNL38       0.0000
   2001 H         -18.8283   48.3271   39.7976 H      38  UNL38       0.0000
   2002 H         -18.4873   46.6387   41.9518 H      38  UNL38       0.0000
   2003 TI        -31.6758   31.9344   37.2661 Ti      1  UNL1        0.0000
   2004 TI        -20.8453   34.8156   27.9013 Ti      1  UNL1        0.0000
   2005 TI        -27.5791   27.9982   35.4461 Ti      1  UNL1        0.0000
   2006 TI        -26.0679   37.1604   29.6730 Ti      1  UNL1        0.0000
   2007 TI        -27.0665   38.8387   27.7687 Ti      1  UNL1        0.0000
   2008 TI        -25.6909   27.7439   37.3994 Ti      1  UNL1        0.0000
   2009 TI        -30.7266   30.1985   35.3746 Ti      1  UNL1        0.0000
   2010 TI        -22.8332   35.1182   29.7487 Ti      1  UNL1        0.0000
   2011 H         -31.1739   35.8315   37.0466 H       1  UNL1        0.0000
   2012 H         -20.0366   30.9096   28.2219 H       1  UNL1        0.0000
   2013 H         -35.6357   31.1778   36.8836 H       1  UNL1        0.0000
   2014 H         -17.4632   36.8199   28.1019 H       1  UNL1        0.0000
   2015 H         -24.7153   23.7093   37.0135 H       1  UNL1        0.0000
   2016 H         -31.1250   38.2488   28.0907 H       1  UNL1        0.0000
   2017 H         -26.5721   37.2019   25.8956 H       1  UNL1        0.0000
   2018 H         -22.7209   34.5729   26.2013 H       1  UNL1        0.0000
   2019 H         -25.1810   27.0768   31.8883 H       1  UNL1        0.0000
   2020 H         -27.7914   38.9974   33.2920 H       1  UNL1        0.0000
   2021 H         -34.7992   33.5872   35.0187 H       1  UNL1        0.0000
   2022 H         -18.0906   32.7313   30.2072 H       1  UNL1        0.0000
   2023 H         -32.4981   32.1397   31.6848 H       1  UNL1        0.0000
   2024 H         -30.1666   40.6665   30.1219 H       1  UNL1        0.0000
   2025 H         -26.6743   41.9415   28.6241 H       1  UNL1        0.0000
   2026 H         -20.1944   28.8907   29.4244 H       1  UNL1        0.0000
   2027 H         -23.9753   36.8405   28.3344 H       1  UNL1        0.0000
   2028 H         -28.6598   29.8466   36.7397 H       1  UNL1        0.0000
   2029 H         -21.4562   29.6787   35.7891 H       1  UNL1        0.0000
   2030 H         -22.9373   29.2097   36.5364 H       1  UNL1        0.0000
   2031 H         -20.8821   34.1124   34.6902 H       1  UNL1        0.0000
   2032 H         -21.4518   34.4709   33.0717 H       1  UNL1        0.0000
   2033 H         -21.9450   24.7239   35.5991 H       1  UNL1        0.0000
   2034 H         -23.2241   25.8245   36.0565 H       1  UNL1        0.0000
   2035 C         -20.2673   34.0744   30.7648 C.3     1  UNL1        0.0000
   2036 C         -32.6364   32.1958   34.4190 C.3     1  UNL1        0.0000
   2037 C         -24.9986   26.9875   34.5214 C.3     1  UNL1        0.0000
   2038 C         -28.0041   39.1309   30.6324 C.3     1  UNL1        0.0000
   2039 C         -19.3713   33.4701   31.7600 C.ar    1  UNL1        0.0000
   2040 C         -33.5683   32.8208   33.4420 C.2     1  UNL1        0.0000
   2041 C         -24.0584   26.3732   33.5742 C.ar    1  UNL1        0.0000
   2042 C         -28.8939   39.7777   31.6322 C.2     1  UNL1        0.0000
   2043 C         -19.6200   33.5450   33.1664 C.ar    1  UNL1        0.0000
   2044 C         -33.3519   32.7008   32.0540 C.3     1  UNL1        0.0000
   2045 C         -22.9290   25.6129   34.0272 C.ar    1  UNL1        0.0000
   2046 C         -29.9886   40.5506   31.1873 C.3     1  UNL1        0.0000
   2047 C         -28.6394   39.6069   32.9871 C.2     1  UNL1        0.0000
   2048 C         -24.3061   26.5053   32.1902 C.ar    1  UNL1        0.0000
   2049 C         -18.2376   32.7711   31.2843 C.ar    1  UNL1        0.0000
   2050 C         -34.6684   33.5132   33.9407 C.2     1  UNL1        0.0000
   2051 C         -20.0555   30.9886   26.0778 C.ar    1  UNL1        0.0000
   2052 C         -26.5253   42.7802   26.1029 C.2     1  UNL1        0.0000
   2053 C         -17.5711   36.7518   25.9518 C.ar    1  UNL1        0.0000
   2054 C         -30.9294   38.2942   25.9324 C.2     1  UNL1        0.0000
   2055 C         -25.3212   34.8172   31.6376 C.3     1  UNL1        0.0000
   2056 C         -30.0773   27.7228   33.5558 C.2     1  UNL1        0.0000
   2057 C         -20.1914   32.4435   26.0546 C.3     1  UNL1        0.0000
   2058 C         -26.6180   41.3467   26.0654 C.2     1  UNL1        0.0000
   2059 C         -18.8689   36.1349   25.9987 C.3     1  UNL1        0.0000
   2060 C         -29.5271   38.7085   25.9569 C.2     1  UNL1        0.0000
   2061 C         -20.0162   30.3195   27.3075 C.ar    1  UNL1        0.0000
   2062 C         -31.1630   36.4199   37.9605 C.3     1  UNL1        0.0000
   2063 C         -16.9158   37.0266   27.1858 C.ar    1  UNL1        0.0000
   2064 C         -36.1972   30.9984   37.7990 C.3     1  UNL1        0.0000
   2065 C         -21.5114   29.9541   37.8135 C.ar    1  UNL1        0.0000
   2066 C         -31.6266   38.0638   27.1449 C.3     1  UNL1        0.0000
   2067 C         -24.6737   23.1822   37.9626 C.ar    1  UNL1        0.0000
   2068 C         -26.5115   43.5314   27.3321 C.3     1  UNL1        0.0000
   2069 N         -26.4564   42.9326   28.5703 N.3     1  UNL1        0.0000
   2070 N         -22.0905   29.7712   36.5745 N.pl3   1  UNL1        0.0000
   2071 N         -20.7009   34.1912   33.6977 N.pl3   1  UNL1        0.0000
   2072 N         -22.5980   25.4546   35.3446 N.pl3   1  UNL1        0.0000
   2073 O         -21.4436   34.4795   31.1306 O.3     1  UNL1        0.0000
   2074 O         -31.8674   31.2449   34.0207 O.3     1  UNL1        0.0000
   2075 O         -24.6172   27.1120   35.7425 O.3     1  UNL1        0.0000
   2076 O         -28.0699   39.5605   29.4328 O.3     1  UNL1        0.0000
   2077 O         -27.2336   38.1737   31.0189 O.3     1  UNL1        0.0000
   2078 O         -26.1691   27.3560   34.1158 O.3     1  UNL1        0.0000
   2079 O         -19.8554   34.1552   29.5530 O.3     1  UNL1        0.0000
   2080 O         -32.6784   32.6321   35.6187 O.3     1  UNL1        0.0000
   2081 O         -22.5279   33.9003   28.5540 O.3     1  UNL1        0.0000
   2082 O         -30.1742   31.7589   36.1191 O.3     1  UNL1        0.0000
   2083 O         -21.5892   36.1876   29.0040 O.3     1  UNL1        0.0000
   2084 O         -31.9263   30.0342   36.6118 O.3     1  UNL1        0.0000
   2085 O         -27.3198   26.8263   36.7065 O.3     1  UNL1        0.0000
   2086 O         -25.5514   38.7217   28.9346 O.3     1  UNL1        0.0000
   2087 O         -26.3659   29.0877   36.2423 O.3     1  UNL1        0.0000
   2088 O         -27.2576   36.9646   28.4171 O.3     1  UNL1        0.0000
   2089 O         -24.9486   25.9720   38.0086 O.3     1  UNL1        0.0000
   2090 O         -26.7011   40.6453   27.1606 O.2     1  UNL1        0.0000
   2091 O         -24.1465   28.7602   38.0034 O.3     1  UNL1        0.0000
   2092 O         -28.9371   38.8096   27.1005 O.2     1  UNL1        0.0000
   2093 O         -19.4083   35.8348   27.1467 O.3     1  UNL1        0.0000
   2094 O         -33.5626   31.8744   37.9345 O.2     1  UNL1        0.0000
   2095 O         -20.2038   33.0804   27.1761 O.3     1  UNL1        0.0000
   2096 O         -31.2944   33.6567   38.0158 O.2     1  UNL1        0.0000
   2097 O         -24.3361   36.2917   29.0551 O.3     1  UNL1        0.0000
   2098 O         -29.0381   29.2879   36.0361 O.3     1  UNL1        0.0000
   2099 O         -21.8820   35.0666   26.1223 O.3     1  UNL1        0.0000
   2100 O         -26.4497   38.1687   25.9555 O.3     1  UNL1        0.0000
   2101 H         -25.2511   30.9799   34.2964 H       1  UNL1        0.0000
   2102 H         -29.1503   25.2921   32.8438 H       1  UNL1        0.0000
   2103 H         -24.4155   40.0617   31.5405 H      13  UNL13       0.0000
   2104 H         -24.1310   32.7374   32.8909 H       1  UNL1        0.0000
   2105 H         -29.0468   32.9278   33.6931 H       1  UNL1        0.0000
   2106 H         -32.6013   27.8517   32.6096 H       1  UNL1        0.0000
   2107 H         -27.7005   31.0817   34.6590 H       1  UNL1        0.0000
   2108 H         -27.9201   34.6948   32.3144 H       1  UNL1        0.0000
   2109 H         -23.3332   37.8658   31.1489 H      13  UNL13       0.0000
   2110 H         -36.9536   38.0584   31.6853 H      59  UNL59       0.0000
   2111 C         -25.9618   33.8173   32.5276 C.ar    1  UNL1        0.0000
   2112 C         -27.2108   31.8530   34.0658 C.ar    1  UNL1        0.0000
   2113 C         -22.7653   38.6706   31.6163 C.2    13  UNL13       0.0000
   2114 C         -30.8041   26.6753   32.7933 C.2     1  UNL1        0.0000
   2115 C         -27.3494   33.8807   32.7561 C.ar    1  UNL1        0.0000
   2116 C         -25.8270   31.7943   33.8591 C.ar    1  UNL1        0.0000
   2117 C         -23.3792   39.9094   31.8385 C.3    13  UNL13       0.0000
   2118 C         -30.1864   25.4357   32.5443 C.3     1  UNL1        0.0000
   2119 C         -21.4275   38.4619   31.9716 C.2    13  UNL13       0.0000
   2120 C         -32.1419   26.8857   32.4107 C.3     1  UNL1        0.0000
   2121 C         -25.2011   32.7734   33.0847 C.ar    1  UNL1        0.0000
   2122 C         -27.9721   32.8943   33.5206 C.ar    1  UNL1        0.0000
   2123 O         -24.0808   34.6746   31.3363 O.3     1  UNL1        0.0000
   2124 O         -30.7012   28.8007   33.8691 O.2     1  UNL1        0.0000
   2125 O         -28.8799   27.4773   33.9449 O.2     1  UNL1        0.0000
   2126 O         -26.0439   35.7662   31.1699 O.3     1  UNL1        0.0000
   2127 N         -22.8436   40.1827   51.1228 N.pl3  40  UNL40       0.0000
   2128 N         -22.3689   39.4033   53.1079 N.pl3  40  UNL40       0.0000
   2129 C         -22.1648   38.9876   50.9388 C.2    40  UNL40       0.0000
   2130 C         -21.8642   38.5025   52.1854 C.2    40  UNL40       0.0000
   2131 C         -21.0677   40.3528   54.9967 C.3    40  UNL40       0.0000
   2132 C         -23.3362   41.0673   50.0593 C.3    40  UNL40       0.0000
   2133 C         -22.9633   40.4117   52.4427 C.3    40  UNL40       0.0000
   2134 C         -22.1542   39.3669   54.5729 C.3    40  UNL40       0.0000
   2135 H         -21.9327   38.5916   49.9580 H      40  UNL40       0.0000
   2136 H         -21.3460   37.6012   52.4897 H      40  UNL40       0.0000
   2137 H         -20.1130   40.1235   54.5065 H      40  UNL40       0.0000
   2138 H         -22.4974   41.3513   49.4149 H      40  UNL40       0.0000
   2139 H         -21.3456   41.3868   54.7561 H      40  UNL40       0.0000
   2140 H         -24.0956   40.5285   49.4809 H      40  UNL40       0.0000
   2141 H         -20.9228   40.2844   56.0832 H      40  UNL40       0.0000
   2142 H         -21.8679   38.3359   54.8204 H      40  UNL40       0.0000
   2143 H         -23.7785   41.9563   50.5195 H      40  UNL40       0.0000
   2144 H         -23.4630   41.2607   52.8923 H      40  UNL40       0.0000
   2145 H         -23.1220   39.5723   55.0464 H      40  UNL40       0.0000
   2146 TI        -36.3105   24.8680   50.3607 Ti      1  UNL1        0.0000
   2147 TI        -25.4800   27.7492   40.9959 Ti      1  UNL1        0.0000
   2148 TI        -32.2138   20.9318   48.5407 Ti      1  UNL1        0.0000
   2149 TI        -30.7026   30.0939   42.7677 Ti      1  UNL1        0.0000
   2150 TI        -31.7012   31.7722   40.8633 Ti      1  UNL1        0.0000
   2151 TI        -30.3256   20.6774   50.4941 Ti      1  UNL1        0.0000
   2152 TI        -35.3613   23.1321   48.4692 Ti      1  UNL1        0.0000
   2153 TI        -27.4678   28.0517   42.8433 Ti      1  UNL1        0.0000
   2154 H         -35.8086   28.7651   50.1412 H      14  UNL14       0.0000
   2155 H         -24.6712   23.8431   41.3165 H       1  UNL1        0.0000
   2156 H         -40.2704   24.1114   49.9782 H      15  UNL15       0.0000
   2157 H         -22.0978   29.7535   41.1965 H       1  UNL1        0.0000
   2158 H         -29.3500   16.6429   50.1081 H       8  UNL8        0.0000
   2159 H         -35.7597   31.1823   41.1853 H       1  UNL1        0.0000
   2160 H         -31.2067   30.1354   38.9902 H       1  UNL1        0.0000
   2161 H         -27.3555   27.5065   39.2959 H       1  UNL1        0.0000
   2162 H         -29.8157   20.0103   44.9830 H       1  UNL1        0.0000
   2163 H         -32.4260   31.9309   46.3866 H       1  UNL1        0.0000
   2164 H         -39.4339   26.5207   48.1133 H       1  UNL1        0.0000
   2165 H         -22.7252   25.6649   43.3019 H       1  UNL1        0.0000
   2166 H         -37.1328   25.0733   44.7794 H       1  UNL1        0.0000
   2167 H         -34.8012   33.6001   43.2165 H       1  UNL1        0.0000
   2168 H         -31.3089   34.8751   41.7187 H       1  UNL1        0.0000
   2169 H         -24.8290   21.8243   42.5190 H       1  UNL1        0.0000
   2170 H         -28.6100   29.7740   41.4290 H       1  UNL1        0.0000
   2171 H         -33.2945   22.7802   49.8343 H       1  UNL1        0.0000
   2172 H         -26.0908   22.6123   48.8837 H      16  UNL16       0.0000
   2173 H         -27.5720   22.1432   49.6311 H      16  UNL16       0.0000
   2174 H         -25.5167   27.0459   47.7848 H       1  UNL1        0.0000
   2175 H         -26.0864   27.4045   46.1663 H       1  UNL1        0.0000
   2176 H         -26.5796   17.6575   48.6937 H       1  UNL1        0.0000
   2177 H         -27.8588   18.7580   49.1511 H       1  UNL1        0.0000
   2178 C         -24.9020   27.0080   43.8594 C.3     1  UNL1        0.0000
   2179 C         -37.2710   25.1294   47.5136 C.3     1  UNL1        0.0000
   2180 C         -29.6333   19.9211   47.6160 C.3     1  UNL1        0.0000
   2181 C         -32.6387   32.0644   43.7270 C.3     1  UNL1        0.0000
   2182 C         -24.0059   26.4036   44.8546 C.ar    1  UNL1        0.0000
   2183 C         -38.2029   25.7544   46.5366 C.2     1  UNL1        0.0000
   2184 C         -28.6931   19.3067   46.6688 C.ar    1  UNL1        0.0000
   2185 C         -33.5285   32.7112   44.7268 C.2     1  UNL1        0.0000
   2186 C         -24.2547   26.4786   46.2610 C.ar    1  UNL1        0.0000
   2187 C         -37.9865   25.6344   45.1486 C.3     1  UNL1        0.0000
   2188 C         -27.5636   18.5464   47.1218 C.ar    1  UNL1        0.0000
   2189 C         -34.6233   33.4842   44.2819 C.3     1  UNL1        0.0000
   2190 C         -33.2740   32.5405   46.0817 C.2     1  UNL1        0.0000
   2191 C         -28.9408   19.4389   45.2849 C.ar    1  UNL1        0.0000
   2192 C         -22.8723   25.7047   44.3789 C.ar    1  UNL1        0.0000
   2193 C         -39.3031   26.4468   47.0353 C.2     1  UNL1        0.0000
   2194 C         -24.6902   23.9222   39.1725 C.ar    1  UNL1        0.0000
   2195 C         -31.1599   35.7138   39.1975 C.2     1  UNL1        0.0000
   2196 C         -22.2057   29.6853   39.0464 C.ar    1  UNL1        0.0000
   2197 C         -35.5641   31.2278   39.0271 C.2     1  UNL1        0.0000
   2198 C         -29.9559   27.7507   44.7322 C.3     1  UNL1        0.0000
   2199 C         -34.7120   20.6564   46.6504 C.2     1  UNL1        0.0000
   2200 C         -24.8260   25.3771   39.1493 C.3     1  UNL1        0.0000
   2201 C         -31.2527   34.2803   39.1600 C.2     1  UNL1        0.0000
   2202 C         -23.5036   29.0685   39.0933 C.3     1  UNL1        0.0000
   2203 C         -34.1618   31.6421   39.0515 C.2     1  UNL1        0.0000
   2204 C         -24.6508   23.2531   40.4021 C.ar    1  UNL1        0.0000
   2205 C         -35.7977   29.3535   51.0551 C.3    41  UNL41       0.0000
   2206 C         -21.5504   29.9601   40.2804 C.ar    1  UNL1        0.0000
   2207 C         -40.8319   23.9320   50.8936 C.3    42  UNL42       0.0000
   2208 C         -26.1461   22.8876   50.9081 C.2    16  UNL16       0.0000
   2209 C         -36.2613   30.9973   40.2395 C.3     1  UNL1        0.0000
   2210 C         -29.3083   16.1157   51.0572 C.2     8  UNL8        0.0000
   2211 C         -31.1461   36.4650   40.4267 C.3     1  UNL1        0.0000
   2212 N         -31.0911   35.8662   41.6649 N.3     1  UNL1        0.0000
   2213 N         -26.7251   22.7048   49.6691 N.pl3  16  UNL16       0.0000
   2214 N         -25.3356   27.1248   46.7923 N.pl3   1  UNL1        0.0000
   2215 N         -27.2326   18.3882   48.4392 N.pl3   1  UNL1        0.0000
   2216 O         -26.0783   27.4131   44.2252 O.3     1  UNL1        0.0000
   2217 O         -36.5020   24.1785   47.1154 O.3     1  UNL1        0.0000
   2218 O         -29.2518   20.0456   48.8371 O.3     1  UNL1        0.0000
   2219 O         -32.7046   32.4941   42.5274 O.3     1  UNL1        0.0000
   2220 O         -31.8682   31.1072   44.1135 O.3     1  UNL1        0.0000
   2221 O         -30.8037   20.2895   47.2105 O.3     1  UNL1        0.0000
   2222 O         -24.4901   27.0887   42.6476 O.3     1  UNL1        0.0000
   2223 O         -37.3130   25.5656   48.7134 O.3     1  UNL1        0.0000
   2224 O         -27.1626   26.8338   41.6486 O.3     1  UNL1        0.0000
   2225 O         -34.8088   24.6924   49.2137 O.3     1  UNL1        0.0000
   2226 O         -26.2238   29.1211   42.0986 O.3     1  UNL1        0.0000
   2227 O         -36.5610   22.9678   49.7064 O.3     1  UNL1        0.0000
   2228 O         -31.9545   19.7598   49.8011 O.3     1  UNL1        0.0000
   2229 O         -30.1860   31.6552   42.0292 O.3     1  UNL1        0.0000
   2230 O         -31.0005   22.0213   49.3369 O.3     1  UNL1        0.0000
   2231 O         -31.8923   29.8981   41.5118 O.3     1  UNL1        0.0000
   2232 O         -29.5833   18.9056   51.1032 O.3     1  UNL1        0.0000
   2233 O         -31.3358   33.5788   40.2552 O.2     1  UNL1        0.0000
   2234 O         -28.7811   21.6938   51.0980 O.3     1  UNL1        0.0000
   2235 O         -33.5717   31.7431   40.1951 O.2     1  UNL1        0.0000
   2236 O         -24.0429   28.7683   40.2413 O.3     1  UNL1        0.0000
   2237 O         -38.1973   24.8079   51.0291 O.3     1  UNL1        0.0000
   2238 O         -24.8385   26.0140   40.2707 O.3     1  UNL1        0.0000
   2239 O         -35.9291   26.5903   51.1104 O.3     1  UNL1        0.0000
   2240 O         -28.9708   29.2253   42.1497 O.3     1  UNL1        0.0000
   2241 O         -33.6727   22.2215   49.1307 O.3     1  UNL1        0.0000
   2242 O         -26.5167   28.0002   39.2169 O.3     1  UNL1        0.0000
   2243 O         -31.0843   31.1022   39.0502 O.3     1  UNL1        0.0000
   2244 H         -29.8857   23.9134   47.3911 H       1  UNL1        0.0000
   2245 H         -33.7849   18.2256   45.9385 H       1  UNL1        0.0000
   2246 H         -29.0502   32.9953   44.6351 H      17  UNL17       0.0000
   2247 H         -28.7656   25.6710   45.9855 H       1  UNL1        0.0000
   2248 H         -33.6815   25.8614   46.7877 H       1  UNL1        0.0000
   2249 H         -37.2360   20.7853   45.7042 H       1  UNL1        0.0000
   2250 H         -32.3351   24.0152   47.7536 H       1  UNL1        0.0000
   2251 H         -32.5548   27.6283   45.4090 H       1  UNL1        0.0000
   2252 H         -27.9679   30.7993   44.2435 H      17  UNL17       0.0000
   2253 H         -41.5883   30.9920   44.7799 H      59  UNL59       0.0000
   2254 C         -30.5964   26.7509   45.6222 C.ar    1  UNL1        0.0000
   2255 C         -31.8454   24.7865   47.1604 C.ar    1  UNL1        0.0000
   2256 C         -27.3999   31.6042   44.7109 C.2    17  UNL17       0.0000
   2257 C         -35.4388   19.6089   45.8879 C.2     1  UNL1        0.0000
   2258 C         -31.9840   26.8143   45.8508 C.ar    1  UNL1        0.0000
   2259 C         -30.4617   24.7278   46.9537 C.ar    1  UNL1        0.0000
   2260 C         -28.0139   32.8429   44.9331 C.3    17  UNL17       0.0000
   2261 C         -34.8210   18.3692   45.6389 C.3     1  UNL1        0.0000
   2262 C         -26.0621   31.3954   45.0662 C.2    17  UNL17       0.0000
   2263 C         -36.7766   19.8192   45.5053 C.3     1  UNL1        0.0000
   2264 C         -29.8357   25.7069   46.1793 C.ar    1  UNL1        0.0000
   2265 C         -32.6067   25.8278   46.6152 C.ar    1  UNL1        0.0000
   2266 O         -28.7155   27.6082   44.4309 O.3     1  UNL1        0.0000
   2267 O         -35.3359   21.7343   46.9637 O.2     1  UNL1        0.0000
   2268 O         -33.5145   20.4109   47.0395 O.2     1  UNL1        0.0000
   2269 O         -30.6786   28.6998   44.2645 O.3     1  UNL1        0.0000
   2270 N         -27.4782   33.1163   64.2174 N.pl3  44  UNL44       0.0000
   2271 N         -27.0035   32.3368   66.2025 N.pl3  44  UNL44       0.0000
   2272 C         -26.7994   31.9211   64.0334 C.2    44  UNL44       0.0000
   2273 C         -26.4988   31.4361   65.2800 C.2    44  UNL44       0.0000
   2274 C         -25.7024   33.2863   68.0913 C.3    44  UNL44       0.0000
   2275 C         -27.9709   34.0009   63.1539 C.3    44  UNL44       0.0000
   2276 C         -27.5979   33.3452   65.5373 C.3    44  UNL44       0.0000
   2277 C         -26.7888   32.3005   67.6675 C.3    44  UNL44       0.0000
   2278 H         -26.5674   31.5251   63.0526 H      44  UNL44       0.0000
   2279 H         -25.9807   30.5348   65.5843 H      44  UNL44       0.0000
   2280 H         -24.7476   33.0570   67.6011 H      44  UNL44       0.0000
   2281 H         -27.1321   34.2849   62.5095 H      44  UNL44       0.0000
   2282 H         -25.9802   34.3203   67.8507 H      44  UNL44       0.0000
   2283 H         -28.7303   33.4621   62.5755 H      44  UNL44       0.0000
   2284 H         -25.5574   33.2180   69.1778 H      44  UNL44       0.0000
   2285 H         -26.5025   31.2694   67.9150 H      44  UNL44       0.0000
   2286 H         -28.4132   34.8899   63.6141 H      44  UNL44       0.0000
   2287 H         -28.0976   34.1942   65.9869 H      44  UNL44       0.0000
   2288 H         -27.7566   32.5058   68.1410 H      44  UNL44       0.0000
   2289 TI         13.1440    1.6725   11.3360 Ti      1  UNL1        0.0000
   2290 TI         23.9745    4.5537    1.9712 Ti      1  UNL1        0.0000
   2291 TI         17.2407   -2.2637    9.5160 Ti      1  UNL1        0.0000
   2292 TI         18.7519    6.8984    3.7430 Ti      1  UNL1        0.0000
   2293 TI         17.7533    8.5767    1.8386 Ti      1  UNL1        0.0000
   2294 TI         19.1289   -2.5180   11.4694 Ti      1  UNL1        0.0000
   2295 TI         14.0932   -0.0634    9.4445 Ti      1  UNL1        0.0000
   2296 TI         21.9867    4.8563    3.8186 Ti      1  UNL1        0.0000
   2297 H          13.6459    5.5696   11.1165 H       1  UNL1        0.0000
   2298 H          24.7833    0.6477    2.2918 H       1  UNL1        0.0000
   2299 H           9.1841    0.9159   10.9535 H       1  UNL1        0.0000
   2300 H          27.3566    6.5580    2.1718 H       1  UNL1        0.0000
   2301 H          20.1045   -6.5526   11.0834 H       1  UNL1        0.0000
   2302 H          13.6948    7.9868    2.1606 H       1  UNL1        0.0000
   2303 H          18.2478    6.9399   -0.0345 H       1  UNL1        0.0000
   2304 H          22.0989    4.3110    0.2712 H       1  UNL1        0.0000
   2305 H          19.6388   -3.1852    5.9583 H       1  UNL1        0.0000
   2306 H          17.0284    8.7355    7.3619 H       1  UNL1        0.0000
   2307 H          10.0206    3.3252    9.0886 H       1  UNL1        0.0000
   2308 H          26.7292    2.4694    4.2772 H       1  UNL1        0.0000
   2309 H          12.3217    1.8778    5.7547 H       1  UNL1        0.0000
   2310 H          14.6532   10.4046    4.1918 H       1  UNL1        0.0000
   2311 H          18.1455   11.6796    2.6940 H       1  UNL1        0.0000
   2312 H          24.6254   -1.3712    3.4943 H      59  UNL59       0.0000
   2313 H          20.8445    6.5786    2.4043 H       1  UNL1        0.0000
   2314 H          16.1600   -0.4153   10.8096 H       1  UNL1        0.0000
   2315 H          23.3636   -0.5832    9.8590 H       1  UNL1        0.0000
   2316 H          21.8825   -1.0523   10.6064 H       1  UNL1        0.0000
   2317 H          23.9378    3.8504    8.7601 H       1  UNL1        0.0000
   2318 H          23.3680    4.2090    7.1416 H       1  UNL1        0.0000
   2319 H          22.8748   -5.5380    9.6690 H       1  UNL1        0.0000
   2320 H          21.5957   -4.4374   10.1264 H       1  UNL1        0.0000
   2321 C          24.5525    3.8125    4.8347 C.3     1  UNL1        0.0000
   2322 C          12.1835    1.9339    8.4889 C.3     1  UNL1        0.0000
   2323 C          19.8212   -3.2744    8.5913 C.3     1  UNL1        0.0000
   2324 C          16.8158    8.8689    4.7023 C.3     1  UNL1        0.0000
   2325 C          25.4485    3.2082    5.8299 C.ar    1  UNL1        0.0000
   2326 C          11.2515    2.5589    7.5119 C.ar    1  UNL1        0.0000
   2327 C          20.7614   -3.8888    7.6441 C.2     1  UNL1        0.0000
   2328 C          15.9259    9.5157    5.7021 C.ar    1  UNL1        0.0000
   2329 C          25.1998    3.2831    7.2363 C.ar    1  UNL1        0.0000
   2330 C          11.4679    2.4389    6.1239 C.ar    1  UNL1        0.0000
   2331 C          21.8908   -4.6491    8.0971 C.2     1  UNL1        0.0000
   2332 C          14.8312   10.2887    5.2572 C.ar    1  UNL1        0.0000
   2333 C          16.1804    9.3450    7.0570 C.ar    1  UNL1        0.0000
   2334 C          20.5137   -3.7566    6.2602 C.3     1  UNL1        0.0000
   2335 C          26.5822    2.5092    5.3542 C.ar    1  UNL1        0.0000
   2336 C          10.1514    3.2513    8.0106 C.ar    1  UNL1        0.0000
   2337 C          24.7643    0.7267    0.1477 C.2     1  UNL1        0.0000
   2338 C          18.2946   12.5183    0.1728 C.2     1  UNL1        0.0000
   2339 C          27.2487    6.4898    0.0217 C.2     1  UNL1        0.0000
   2340 C          13.8904    8.0323    0.0024 C.2     1  UNL1        0.0000
   2341 C          19.4986    4.5553    5.7075 C.3     1  UNL1        0.0000
   2342 C          14.7425   -2.5391    7.6257 C.2     1  UNL1        0.0000
   2343 C          24.6284    2.1816    0.1245 C.2     1  UNL1        0.0000
   2344 C          18.2018   11.0848    0.1353 C.2     1  UNL1        0.0000
   2345 C          25.9509    5.8730    0.0686 C.2     1  UNL1        0.0000
   2346 C          15.2927    8.4466    0.0268 C.2     1  UNL1        0.0000
   2347 C          24.8036    0.0576    1.3774 C.3     1  UNL1        0.0000
   2348 C          13.6568    6.1580   12.0304 C.ar    1  UNL1        0.0000
   2349 C          27.9040    6.7646    1.2557 C.2     1  UNL1        0.0000
   2350 C           8.6226    0.7365   11.8689 C.ar    1  UNL1        0.0000
   2351 C          23.3084   -0.3079   11.8834 C.ar    1  UNL1        0.0000
   2352 C          13.1932    7.8019    1.2148 C.2     1  UNL1        0.0000
   2353 C          20.1461   -7.0797   12.0325 C.3     1  UNL1        0.0000
   2354 C          18.3083   13.2695    1.4020 C.2     1  UNL1        0.0000
   2355 N          18.3634   12.6707    2.6402 N.pl3   1  UNL1        0.0000
   2356 N          22.7293   -0.4907   10.6444 N.pl3   1  UNL1        0.0000
   2357 N          24.1189    3.9293    7.7676 N.pl3   1  UNL1        0.0000
   2358 N          22.2218   -4.8073    9.4145 N.pl3   1  UNL1        0.0000
   2359 O          23.3762    4.2176    5.2005 O.3     1  UNL1        0.0000
   2360 O          12.9524    0.9830    8.0907 O.3     1  UNL1        0.0000
   2361 O          20.2026   -3.1499    9.8124 O.3     1  UNL1        0.0000
   2362 O          16.7499    9.2986    3.5027 O.3     1  UNL1        0.0000
   2363 O          17.5862    7.9117    5.0888 O.3     1  UNL1        0.0000
   2364 O          18.6508   -2.9060    8.1857 O.3     1  UNL1        0.0000
   2365 O          24.9644    3.8932    3.6229 O.3     1  UNL1        0.0000
   2366 O          12.1414    2.3701    9.6886 O.3     1  UNL1        0.0000
   2367 O          22.2919    3.6384    2.6239 O.3     1  UNL1        0.0000
   2368 O          14.6457    1.4970   10.1890 O.3     1  UNL1        0.0000
   2369 O          23.2307    5.9256    3.0739 O.3     1  UNL1        0.0000
   2370 O          12.8935   -0.2277   10.6817 O.3     1  UNL1        0.0000
   2371 O          17.5000   -3.4357   10.7764 O.3     1  UNL1        0.0000
   2372 O          19.2684    8.4597    3.0045 O.3     1  UNL1        0.0000
   2373 O          18.4539   -1.1742   10.3122 O.3     1  UNL1        0.0000
   2374 O          17.5622    6.7026    2.4870 O.3     1  UNL1        0.0000
   2375 O          19.8712   -4.2899   12.0785 O.2     1  UNL1        0.0000
   2376 O          18.1187   10.3834    1.2305 O.2     1  UNL1        0.0000
   2377 O          20.6734   -1.5017   12.0733 O.3     1  UNL1        0.0000
   2378 O          15.8828    8.5476    1.1704 O.2     1  UNL1        0.0000
   2379 O          25.4115    5.5728    1.2166 O.2     1  UNL1        0.0000
   2380 O          11.2572    1.6124   12.0044 O.3     1  UNL1        0.0000
   2381 O          24.6160    2.8185    1.2460 O.2     1  UNL1        0.0000
   2382 O          13.5254    3.3948   12.0857 O.3     1  UNL1        0.0000
   2383 O          20.4837    6.0298    3.1250 O.3     1  UNL1        0.0000
   2384 O          15.7817   -0.9740   10.1060 O.3     1  UNL1        0.0000
   2385 O          22.9378    4.8047    0.1922 O.3     1  UNL1        0.0000
   2386 O          18.3701    7.9067    0.0255 O.3     1  UNL1        0.0000
   2387 H          19.5687    0.7180    8.3664 H       1  UNL1        0.0000
   2388 H          15.6696   -4.9699    6.9137 H       1  UNL1        0.0000
   2389 H          20.4043    9.7998    5.6104 H       1  UNL1        0.0000
   2390 H          20.6889    2.4755    6.9608 H       1  UNL1        0.0000
   2391 H          15.7730    2.6659    7.7630 H       1  UNL1        0.0000
   2392 H          12.2185   -2.4102    6.6795 H       1  UNL1        0.0000
   2393 H          17.1194    0.8197    8.7289 H       1  UNL1        0.0000
   2394 H          16.8997    4.4329    6.3843 H       1  UNL1        0.0000
   2395 H          21.4866    7.6038    5.2188 H       1  UNL1        0.0000
   2396 H           7.8662    7.7965    5.7552 H       1  UNL1        0.0000
   2397 C          18.8581    3.5554    6.5975 C.ar    1  UNL1        0.0000
   2398 C          17.6091    1.5911    8.1357 C.ar    1  UNL1        0.0000
   2399 C          22.0545    8.4087    5.6862 C.ar    1  UNL1        0.0000
   2400 C          14.0157   -3.5866    6.8632 C.2     1  UNL1        0.0000
   2401 C          17.4704    3.6188    6.8261 C.ar    1  UNL1        0.0000
   2402 C          18.9928    1.5324    7.9290 C.ar    1  UNL1        0.0000
   2403 C          21.4406    9.6474    5.9084 C.ar    1  UNL1        0.0000
   2404 C          14.6334   -4.8263    6.6142 C.3     1  UNL1        0.0000
   2405 C          23.3923    8.2000    6.0415 C.ar    1  UNL1        0.0000
   2406 C          12.6779   -3.3762    6.4806 C.3     1  UNL1        0.0000
   2407 C          19.6187    2.5114    7.1546 C.ar    1  UNL1        0.0000
   2408 C          16.8477    2.6323    7.5905 C.ar    1  UNL1        0.0000
   2409 O          20.7390    4.4127    5.4062 O.3     1  UNL1        0.0000
   2410 O          14.1186   -1.4612    7.9390 O.2     1  UNL1        0.0000
   2411 O          15.9399   -2.7846    8.0148 O.2     1  UNL1        0.0000
   2412 O          18.7759    5.5043    5.2398 O.3     1  UNL1        0.0000
   2413 N          21.9762    9.9208   25.1927 N.pl3  46  UNL46       0.0000
   2414 N          22.4510    9.1413   27.1778 N.pl3  46  UNL46       0.0000
   2415 C          22.6550    8.7257   25.0087 C.2    46  UNL46       0.0000
   2416 C          22.9557    8.2406   26.2553 C.2    46  UNL46       0.0000
   2417 C          23.7521   10.0909   29.0666 C.3    46  UNL46       0.0000
   2418 C          21.4836   10.8054   24.1292 C.3    46  UNL46       0.0000
   2419 C          21.8566   10.1497   26.5126 C.3    46  UNL46       0.0000
   2420 C          22.6657    9.1050   28.6428 C.3    46  UNL46       0.0000
   2421 H          22.8871    8.3296   24.0279 H      46  UNL46       0.0000
   2422 H          23.4738    7.3393   26.5596 H      46  UNL46       0.0000
   2423 H          24.7069    9.8615   28.5764 H      46  UNL46       0.0000
   2424 H          22.3224   11.0894   23.4848 H      46  UNL46       0.0000
   2425 H          23.4743   11.1249   28.8260 H      46  UNL46       0.0000
   2426 H          20.7242   10.2666   23.5508 H      46  UNL46       0.0000
   2427 H          23.8970   10.0225   30.1531 H      46  UNL46       0.0000
   2428 H          22.9519    8.0740   28.8903 H      46  UNL46       0.0000
   2429 H          21.0413   11.6944   24.5894 H      46  UNL46       0.0000
   2430 H          21.3568   10.9987   26.9622 H      46  UNL46       0.0000
   2431 H          21.6978    9.3103   29.1163 H      46  UNL46       0.0000
   2432 TI          8.5094   -5.3939   24.4306 Ti      1  UNL1        0.0000
   2433 TI         19.3398   -2.5127   15.0658 Ti      1  UNL1        0.0000
   2434 TI         12.6060   -9.3301   22.6106 Ti      1  UNL1        0.0000
   2435 TI         14.1172   -0.1680   16.8376 Ti      1  UNL1        0.0000
   2436 TI         13.1187    1.5103   14.9332 Ti      1  UNL1        0.0000
   2437 TI         14.4942   -9.5845   24.5640 Ti      1  UNL1        0.0000
   2438 TI          9.4585   -7.1298   22.5391 Ti      1  UNL1        0.0000
   2439 TI         17.3520   -2.2102   16.9132 Ti      1  UNL1        0.0000
   2440 H           9.0112   -1.4969   24.2111 H       1  UNL1        0.0000
   2441 H          20.1486   -6.4188   15.3865 H       1  UNL1        0.0000
   2442 H           4.5495   -6.1506   24.0481 H       1  UNL1        0.0000
   2443 H          22.7220   -0.5084   15.2664 H       1  UNL1        0.0000
   2444 H          15.4698  -13.6190   24.1780 H       1  UNL1        0.0000
   2445 H           9.0601    0.9204   15.2552 H       1  UNL1        0.0000
   2446 H          13.6131   -0.1265   13.0601 H       1  UNL1        0.0000
   2447 H          17.4643   -2.7554   13.3658 H       1  UNL1        0.0000
   2448 H          15.0041  -10.2516   19.0529 H       1  UNL1        0.0000
   2449 H          12.3938    1.6690   20.4565 H       1  UNL1        0.0000
   2450 H           5.3859   -3.7412   22.1832 H       1  UNL1        0.0000
   2451 H          22.0946   -4.5971   17.3718 H       1  UNL1        0.0000
   2452 H           7.6870   -5.1886   18.8494 H       1  UNL1        0.0000
   2453 H          10.0186    3.3382   17.2864 H       1  UNL1        0.0000
   2454 H          13.5109    4.6131   15.7886 H       1  UNL1        0.0000
   2455 H          19.9908   -8.4376   16.5889 H      59  UNL59       0.0000
   2456 H          16.2099   -0.4879   15.4989 H       1  UNL1        0.0000
   2457 H          11.5253   -7.4817   23.9042 H       1  UNL1        0.0000
   2458 H          18.7290   -7.6496   22.9536 H       1  UNL1        0.0000
   2459 H          17.2479   -8.1187   23.7010 H       1  UNL1        0.0000
   2460 H          19.3031   -3.2160   21.8547 H       1  UNL1        0.0000
   2461 H          18.7334   -2.8574   20.2362 H       1  UNL1        0.0000
   2462 H          18.2402  -12.6045   22.7636 H       1  UNL1        0.0000
   2463 H          16.9610  -11.5039   23.2210 H       1  UNL1        0.0000
   2464 C          19.9179   -3.2540   17.9293 C.3     1  UNL1        0.0000
   2465 C           7.5488   -5.1326   21.5835 C.3     1  UNL1        0.0000
   2466 C          15.1865  -10.3408   21.6859 C.3     1  UNL1        0.0000
   2467 C          12.1811    1.8025   17.7969 C.3     1  UNL1        0.0000
   2468 C          20.8139   -3.8583   18.9245 C.ar    1  UNL1        0.0000
   2469 C           6.6169   -4.5075   20.6065 C.ar    1  UNL1        0.0000
   2470 C          16.1267  -10.9552   20.7387 C.2     1  UNL1        0.0000
   2471 C          11.2913    2.4493   18.7967 C.ar    1  UNL1        0.0000
   2472 C          20.5651   -3.7834   20.3309 C.ar    1  UNL1        0.0000
   2473 C           6.8333   -4.6275   19.2185 C.ar    1  UNL1        0.0000
   2474 C          17.2562  -11.7155   21.1917 C.2     1  UNL1        0.0000
   2475 C          10.1966    3.2223   18.3518 C.ar    1  UNL1        0.0000
   2476 C          11.5458    2.2785   20.1516 C.ar    1  UNL1        0.0000
   2477 C          15.8790  -10.8231   19.3548 C.3     1  UNL1        0.0000
   2478 C          21.9476   -4.5573   18.4488 C.ar    1  UNL1        0.0000
   2479 C           5.5167   -3.8151   21.1052 C.ar    1  UNL1        0.0000
   2480 C          20.1296   -6.3397   13.2424 C.2     1  UNL1        0.0000
   2481 C          13.6599    5.4519   13.2674 C.ar    1  UNL1        0.0000
   2482 C          22.6141   -0.5766   13.1164 C.ar    1  UNL1        0.0000
   2483 C           9.2557    0.9658   13.0970 C.ar    1  UNL1        0.0000
   2484 C          14.8639   -2.5112   18.8022 C.3     1  UNL1        0.0000
   2485 C          10.1079   -9.6056   20.7203 C.2     1  UNL1        0.0000
   2486 C          19.9938   -4.8849   13.2192 C.2     1  UNL1        0.0000
   2487 C          13.5672    4.0184   13.2299 C.3     1  UNL1        0.0000
   2488 C          21.3162   -1.1934   13.1632 C.3     1  UNL1        0.0000
   2489 C          10.6580    1.3802   13.1214 C.3     1  UNL1        0.0000
   2490 C          20.1690   -7.0088   14.4720 C.3     1  UNL1        0.0000
   2491 C           9.0222   -0.9085   25.1250 C.ar    1  UNL1        0.0000
   2492 C          23.2694   -0.3018   14.3503 C.ar    1  UNL1        0.0000
   2493 C           3.9880   -6.3299   24.9635 C.ar    1  UNL1        0.0000
   2494 C          18.6737   -7.3743   24.9780 C.ar    1  UNL1        0.0000
   2495 C           8.5585    0.7354   14.3094 C.ar    1  UNL1        0.0000
   2496 C          15.5115  -14.1462   25.1271 C.3     1  UNL1        0.0000
   2497 C          13.6737    6.2031   14.4966 C.ar    1  UNL1        0.0000
   2498 N          13.7287    5.6042   15.7348 N.pl3   1  UNL1        0.0000
   2499 N          18.0947   -7.5571   23.7390 N.pl3   1  UNL1        0.0000
   2500 N          19.4842   -3.1371   20.8622 N.pl3   1  UNL1        0.0000
   2501 N          17.5872  -11.8737   22.5091 N.pl3   1  UNL1        0.0000
   2502 O          18.7415   -2.8489   18.2951 O.3     1  UNL1        0.0000
   2503 O           8.3178   -6.0834   21.1853 O.3     1  UNL1        0.0000
   2504 O          15.5680  -10.2164   22.9070 O.3     1  UNL1        0.0000
   2505 O          12.1152    2.2322   16.5973 O.3     1  UNL1        0.0000
   2506 O          12.9516    0.8453   18.1834 O.3     1  UNL1        0.0000
   2507 O          14.0161   -9.9724   21.2804 O.3     1  UNL1        0.0000
   2508 O          20.3297   -3.1732   16.7175 O.3     1  UNL1        0.0000
   2509 O           7.5068   -4.6963   22.7833 O.3     1  UNL1        0.0000
   2510 O          17.6572   -3.4281   15.7185 O.3     1  UNL1        0.0000
   2511 O          10.0110   -5.5695   23.2836 O.3     1  UNL1        0.0000
   2512 O          18.5960   -1.1408   16.1685 O.3     1  UNL1        0.0000
   2513 O           8.2588   -7.2942   23.7763 O.3     1  UNL1        0.0000
   2514 O          12.8653  -10.5021   23.8710 O.3     1  UNL1        0.0000
   2515 O          14.6338    1.3933   16.0991 O.3     1  UNL1        0.0000
   2516 O          13.8193   -8.2406   23.4068 O.3     1  UNL1        0.0000
   2517 O          12.9275   -0.3638   15.5817 O.3     1  UNL1        0.0000
   2518 O          15.2366  -11.3563   25.1731 O.2     1  UNL1        0.0000
   2519 O          13.4840    3.3169   14.3251 O.3     1  UNL1        0.0000
   2520 O          16.0387   -8.5682   25.1679 O.3     1  UNL1        0.0000
   2521 O          11.2481    1.4812   14.2650 O.3     1  UNL1        0.0000
   2522 O          20.7769   -1.4936   14.3112 O.3     1  UNL1        0.0000
   2523 O           6.6226   -5.4540   25.0990 O.3     1  UNL1        0.0000
   2524 O          19.9813   -4.2479   14.3406 O.2     1  UNL1        0.0000
   2525 O           8.8908   -3.6716   25.1803 O.3     1  UNL1        0.0000
   2526 O          15.8490   -1.0366   16.2196 O.3     1  UNL1        0.0000
   2527 O          11.1471   -8.0404   23.2006 O.3     1  UNL1        0.0000
   2528 O          18.3031   -2.2617   13.2868 O.3     1  UNL1        0.0000
   2529 O          13.7355    0.8403   13.1201 O.3     1  UNL1        0.0000
   2530 H          14.9341   -6.3485   21.4610 H       1  UNL1        0.0000
   2531 H          11.0349  -12.0363   20.0084 H       1  UNL1        0.0000
   2532 H          15.7697    2.7334   18.7050 H       1  UNL1        0.0000
   2533 H          16.0542   -4.5909   20.0554 H       1  UNL1        0.0000
   2534 H          11.1383   -4.4005   20.8576 H       1  UNL1        0.0000
   2535 H           7.5838   -9.4766   19.7741 H       1  UNL1        0.0000
   2536 H          12.4847   -6.2467   21.8235 H       1  UNL1        0.0000
   2537 H          12.2651   -2.6336   19.4789 H       1  UNL1        0.0000
   2538 H          16.8519    0.5374   18.3134 H       1  UNL1        0.0000
   2539 H           3.2316    0.7301   18.8498 H       1  UNL1        0.0000
   2540 C          14.2234   -3.5110   19.6921 C.ar    1  UNL1        0.0000
   2541 C          12.9744   -5.4754   21.2303 C.ar    1  UNL1        0.0000
   2542 C          17.4199    1.3422   18.7808 C.ar    1  UNL1        0.0000
   2543 C           9.3810  -10.6530   19.9578 C.2     1  UNL1        0.0000
   2544 C          12.8358   -3.4477   19.9207 C.ar    1  UNL1        0.0000
   2545 C          14.3581   -5.5341   21.0236 C.ar    1  UNL1        0.0000
   2546 C          16.8059    2.5810   19.0030 C.ar    1  UNL1        0.0000
   2547 C           9.9988  -11.8927   19.7088 C.3     1  UNL1        0.0000
   2548 C          18.7577    1.1335   19.1361 C.ar    1  UNL1        0.0000
   2549 C           8.0433  -10.4427   19.5752 C.3     1  UNL1        0.0000
   2550 C          14.9841   -4.5550   20.2492 C.ar    1  UNL1        0.0000
   2551 C          12.2131   -4.4341   20.6851 C.ar    1  UNL1        0.0000
   2552 O          16.1043   -2.6537   18.5008 O.3     1  UNL1        0.0000
   2553 O           9.4840   -8.5276   21.0336 O.2     1  UNL1        0.0000
   2554 O          11.3053   -9.8511   21.1094 O.2     1  UNL1        0.0000
   2555 O          14.1412   -1.5621   18.3344 O.3     1  UNL1        0.0000
   2556 N          17.3416    2.8543   38.2873 N.pl3  48  UNL48       0.0000
   2557 N          17.8163    2.0749   40.2724 N.pl3  48  UNL48       0.0000
   2558 C          18.0204    1.6592   38.1033 C.2    48  UNL48       0.0000
   2559 C          18.3210    1.1742   39.3499 C.2    48  UNL48       0.0000
   2560 C          19.1175    3.0244   42.1612 C.3    48  UNL48       0.0000
   2561 C          16.8490    3.7389   37.2238 C.3    48  UNL48       0.0000
   2562 C          17.2219    3.0833   39.6072 C.3    48  UNL48       0.0000
   2563 C          18.0310    2.0386   41.7374 C.3    48  UNL48       0.0000
   2564 H          18.2525    1.2632   37.1225 H      48  UNL48       0.0000
   2565 H          18.8392    0.2729   39.6542 H      48  UNL48       0.0000
   2566 H          20.0722    2.7951   41.6710 H      48  UNL48       0.0000
   2567 H          17.6878    4.0229   36.5794 H      48  UNL48       0.0000
   2568 H          18.8396    4.0584   41.9207 H      48  UNL48       0.0000
   2569 H          16.0895    3.2002   36.6454 H      48  UNL48       0.0000
   2570 H          19.2624    2.9561   43.2477 H      48  UNL48       0.0000
   2571 H          18.3173    1.0075   41.9849 H      48  UNL48       0.0000
   2572 H          16.4067    4.6279   37.6840 H      48  UNL48       0.0000
   2573 H          16.7222    3.9323   40.0568 H      48  UNL48       0.0000
   2574 H          17.0632    2.2439   42.2109 H      48  UNL48       0.0000
   2575 TI          3.8747  -12.4604   37.5252 Ti      1  UNL1        0.0000
   2576 TI         14.7052   -9.5792   28.1604 Ti      1  UNL1        0.0000
   2577 TI          7.9714  -16.3966   35.7052 Ti      1  UNL1        0.0000
   2578 TI          9.4826   -7.2344   29.9322 Ti      1  UNL1        0.0000
   2579 TI          8.4840   -5.5561   28.0278 Ti      1  UNL1        0.0000
   2580 TI          9.8596  -16.6509   37.6586 Ti      1  UNL1        0.0000
   2581 TI          4.8239  -14.1963   35.6337 Ti      1  UNL1        0.0000
   2582 TI         12.7174   -9.2766   30.0078 Ti      1  UNL1        0.0000
   2583 H           4.3766   -8.5633   37.3057 H       1  UNL1        0.0000
   2584 H          15.5140  -13.4852   28.4811 H       1  UNL1        0.0000
   2585 H          -0.0852  -13.2170   37.1427 H       1  UNL1        0.0000
   2586 H          18.0873   -7.5749   28.3610 H       1  UNL1        0.0000
   2587 H          10.8352  -20.6855   37.2726 H       1  UNL1        0.0000
   2588 H           4.4255   -6.1460   28.3498 H       1  UNL1        0.0000
   2589 H           8.9785   -7.1929   26.1547 H       1  UNL1        0.0000
   2590 H          12.8297   -9.8219   26.4604 H       1  UNL1        0.0000
   2591 H          10.3695  -17.3180   32.1475 H       1  UNL1        0.0000
   2592 H           7.7591   -5.3974   33.5511 H       1  UNL1        0.0000
   2593 H           0.7513  -10.8076   35.2778 H       1  UNL1        0.0000
   2594 H          17.4599  -11.6635   30.4664 H       1  UNL1        0.0000
   2595 H           3.0524  -12.2551   31.9440 H       1  UNL1        0.0000
   2596 H           5.3839   -3.7283   30.3810 H       1  UNL1        0.0000
   2597 H           8.8763   -2.4533   28.8833 H       1  UNL1        0.0000
   2598 H          15.3561  -15.5041   29.6835 H      59  UNL59       0.0000
   2599 H          11.5752   -7.5543   28.5935 H       1  UNL1        0.0000
   2600 H           6.8907  -14.5482   36.9988 H       1  UNL1        0.0000
   2601 H          14.0943  -14.7161   36.0482 H       1  UNL1        0.0000
   2602 H          12.6132  -15.1851   36.7956 H       1  UNL1        0.0000
   2603 H          14.6685  -10.2824   34.9493 H       1  UNL1        0.0000
   2604 H          14.0987   -9.9238   33.3308 H       1  UNL1        0.0000
   2605 H          13.6055  -19.6709   35.8582 H       1  UNL1        0.0000
   2606 H          12.3264  -18.5703   36.3156 H       1  UNL1        0.0000
   2607 C          15.2832  -10.3204   31.0239 C.3     1  UNL1        0.0000
   2608 C           2.9142  -12.1990   34.6782 C.3     1  UNL1        0.0000
   2609 C          10.5519  -17.4073   34.7805 C.3     1  UNL1        0.0000
   2610 C           7.5465   -5.2639   30.8915 C.3     1  UNL1        0.0000
   2611 C          16.1792  -10.9247   32.0191 C.ar    1  UNL1        0.0000
   2612 C           1.9823  -11.5740   33.7011 C.ar    1  UNL1        0.0000
   2613 C          11.4921  -18.0216   33.8333 C.2     1  UNL1        0.0000
   2614 C           6.6566   -4.6171   31.8913 C.ar    1  UNL1        0.0000
   2615 C          15.9305  -10.8498   33.4255 C.ar    1  UNL1        0.0000
   2616 C           2.1986  -11.6940   32.3131 C.ar    1  UNL1        0.0000
   2617 C          12.6215  -18.7819   34.2864 C.2     1  UNL1        0.0000
   2618 C           5.5619   -3.8442   31.4464 C.ar    1  UNL1        0.0000
   2619 C           6.9111   -4.7879   33.2462 C.ar    1  UNL1        0.0000
   2620 C          11.2444  -17.8895   32.4494 C.3     1  UNL1        0.0000
   2621 C          17.3129  -11.6237   31.5434 C.ar    1  UNL1        0.0000
   2622 C           0.8821  -10.8816   34.1998 C.ar    1  UNL1        0.0000
   2623 C          15.4950  -13.4061   26.3370 C.2     1  UNL1        0.0000
   2624 C           9.0253   -1.6146   26.3620 C.ar    1  UNL1        0.0000
   2625 C          17.9794   -7.6430   26.2110 C.ar    1  UNL1        0.0000
   2626 C           4.6211   -6.1006   26.1916 C.ar    1  UNL1        0.0000
   2627 C          10.2293   -9.5776   31.8968 C.3     1  UNL1        0.0000
   2628 C           5.4732  -16.6720   33.8149 C.2     1  UNL1        0.0000
   2629 C          15.3591  -11.9513   26.3138 C.2     1  UNL1        0.0000
   2630 C           8.9325   -3.0481   26.3245 C.3     1  UNL1        0.0000
   2631 C          16.6816   -8.2599   26.2578 C.3     1  UNL1        0.0000
   2632 C           6.0234   -5.6863   26.2160 C.3     1  UNL1        0.0000
   2633 C          15.5343  -14.0753   27.5666 C.3     1  UNL1        0.0000
   2634 C           4.3875   -7.9749   38.2196 C.ar    1  UNL1        0.0000
   2635 C          18.6347   -7.3682   27.4449 C.ar    1  UNL1        0.0000
   2636 C          -0.6467  -13.3964   38.0581 C.ar    1  UNL1        0.0000
   2637 C          14.0391  -14.4407   38.0726 C.ar    1  UNL1        0.0000
   2638 C           3.9239   -6.3310   27.4040 C.ar    1  UNL1        0.0000
   2639 C          10.8768  -21.2126   38.2217 C.3     1  UNL1        0.0000
   2640 C           9.0390   -0.8634   27.5913 C.ar    1  UNL1        0.0000
   2641 N           9.0941   -1.4622   28.8294 N.pl3   1  UNL1        0.0000
   2642 N          13.4600  -14.6236   36.8336 N.pl3   1  UNL1        0.0000
   2643 N          14.8496  -10.2036   33.9568 N.pl3   1  UNL1        0.0000
   2644 N          12.9526  -18.9402   35.6038 N.pl3   1  UNL1        0.0000
   2645 O          14.1069   -9.9153   31.3897 O.3     1  UNL1        0.0000
   2646 O           3.6832  -13.1499   34.2799 O.3     1  UNL1        0.0000
   2647 O          10.9334  -17.2828   36.0016 O.3     1  UNL1        0.0000
   2648 O           7.4806   -4.8343   29.6919 O.3     1  UNL1        0.0000
   2649 O           8.3169   -6.2211   31.2780 O.3     1  UNL1        0.0000
   2650 O           9.3815  -17.0388   34.3750 O.3     1  UNL1        0.0000
   2651 O          15.6951  -10.2396   29.8122 O.3     1  UNL1        0.0000
   2652 O           2.8721  -11.7627   35.8779 O.3     1  UNL1        0.0000
   2653 O          13.0226  -10.4945   28.8131 O.3     1  UNL1        0.0000
   2654 O           5.3764  -12.6359   36.3782 O.3     1  UNL1        0.0000
   2655 O          13.9614   -8.2072   29.2631 O.3     1  UNL1        0.0000
   2656 O           3.6242  -14.3606   36.8709 O.3     1  UNL1        0.0000
   2657 O           8.2307  -17.5685   36.9656 O.3     1  UNL1        0.0000
   2658 O           9.9991   -5.6731   29.1937 O.3     1  UNL1        0.0000
   2659 O           9.1846  -15.3070   36.5014 O.3     1  UNL1        0.0000
   2660 O           8.2929   -7.4302   28.6763 O.3     1  UNL1        0.0000
   2661 O          10.6019  -18.4228   38.2677 O.2     1  UNL1        0.0000
   2662 O           8.8494   -3.7495   27.4197 O.3     1  UNL1        0.0000
   2663 O          11.4041  -15.6346   38.2626 O.3     1  UNL1        0.0000
   2664 O           6.6135   -5.5852   27.3596 O.3     1  UNL1        0.0000
   2665 O          16.1423   -8.5600   27.4058 O.3     1  UNL1        0.0000
   2666 O           1.9879  -12.5204   38.1936 O.3     1  UNL1        0.0000
   2667 O          15.3467  -11.3144   27.4352 O.2     1  UNL1        0.0000
   2668 O           4.2561  -10.7381   38.2749 O.3     1  UNL1        0.0000
   2669 O          11.2144   -8.1031   29.3142 O.3     1  UNL1        0.0000
   2670 O           6.5124  -15.1069   36.2952 O.3     1  UNL1        0.0000
   2671 O          13.6685   -9.3282   26.3814 O.3     1  UNL1        0.0000
   2672 O           9.1008   -6.2261   26.2147 O.3     1  UNL1        0.0000
   2673 H          10.2995  -13.4149   34.5556 H       1  UNL1        0.0000
   2674 H           6.4003  -19.1027   33.1030 H       1  UNL1        0.0000
   2675 H          11.1350   -4.3330   31.7996 H       1  UNL1        0.0000
   2676 H          11.4196  -11.6574   33.1500 H       1  UNL1        0.0000
   2677 H           6.5037  -11.4670   33.9522 H       1  UNL1        0.0000
   2678 H           2.9492  -16.5430   32.8687 H       1  UNL1        0.0000
   2679 H           7.8501  -13.3131   34.9181 H       1  UNL1        0.0000
   2680 H           7.6304   -9.7000   32.5735 H       1  UNL1        0.0000
   2681 H          12.2173   -6.5290   31.4080 H       1  UNL1        0.0000
   2682 H          -1.4031   -6.3364   31.9444 H       1  UNL1        0.0000
   2683 C           9.5888  -10.5775   32.7867 C.ar    1  UNL1        0.0000
   2684 C           8.3398  -12.5418   34.3249 C.ar    1  UNL1        0.0000
   2685 C          12.7852   -5.7242   31.8754 C.ar    1  UNL1        0.0000
   2686 C           4.7464  -17.7195   33.0524 C.2     1  UNL1        0.0000
   2687 C           8.2011  -10.5141   33.0153 C.ar    1  UNL1        0.0000
   2688 C           9.7235  -12.6005   34.1183 C.ar    1  UNL1        0.0000
   2689 C          12.1713   -4.4854   32.0976 C.ar    1  UNL1        0.0000
   2690 C           5.3641  -18.9591   32.8034 C.3     1  UNL1        0.0000
   2691 C          14.1230   -5.9329   32.2307 C.ar    1  UNL1        0.0000
   2692 C           3.4086  -17.5091   32.6698 C.3     1  UNL1        0.0000
   2693 C          10.3494  -11.6214   33.3438 C.ar    1  UNL1        0.0000
   2694 C           7.5785  -11.5005   33.7797 C.ar    1  UNL1        0.0000
   2695 O          11.4697   -9.7202   31.5954 O.3     1  UNL1        0.0000
   2696 O           4.8493  -15.5941   34.1282 O.2     1  UNL1        0.0000
   2697 O           6.6706  -16.9175   34.2040 O.2     1  UNL1        0.0000
   2698 O           9.5066   -8.6286   31.4290 O.3     1  UNL1        0.0000
   2699 N          12.7070   -4.2121   51.3819 N.pl3  50  UNL50       0.0000
   2700 N          13.1817   -4.9915   53.3670 N.pl3  50  UNL50       0.0000
   2701 C          13.3857   -5.4072   51.1979 C.2    50  UNL50       0.0000
   2702 C          13.6864   -5.8923   52.4446 C.2    50  UNL50       0.0000
   2703 C          14.4828   -4.0420   55.2558 C.3    50  UNL50       0.0000
   2704 C          12.2143   -3.3275   50.3184 C.3    50  UNL50       0.0000
   2705 C          12.5873   -3.9831   52.7018 C.3    50  UNL50       0.0000
   2706 C          13.3964   -5.0279   54.8320 C.3    50  UNL50       0.0000
   2707 H          13.6178   -5.8032   50.2171 H      50  UNL50       0.0000
   2708 H          14.2045   -6.7936   52.7488 H      50  UNL50       0.0000
   2709 H          15.4376   -4.2713   54.7656 H      50  UNL50       0.0000
   2710 H          13.0531   -3.0435   49.6740 H      50  UNL50       0.0000
   2711 H          14.2050   -3.0080   55.0153 H      50  UNL50       0.0000
   2712 H          11.4549   -3.8663   49.7400 H      50  UNL50       0.0000
   2713 H          14.6278   -4.1103   56.3423 H      50  UNL50       0.0000
   2714 H          13.6826   -6.0589   55.0795 H      50  UNL50       0.0000
   2715 H          11.7720   -2.4385   50.7787 H      50  UNL50       0.0000
   2716 H          12.0875   -3.1341   53.1514 H      50  UNL50       0.0000
   2717 H          12.4285   -4.8225   55.3055 H      50  UNL50       0.0000
   2718 TI         -0.7599  -19.5268   50.6198 Ti      1  UNL1        0.0000
   2719 TI         10.0705  -16.6456   41.2550 Ti      1  UNL1        0.0000
   2720 TI          3.3367  -23.4630   48.7998 Ti      1  UNL1        0.0000
   2721 TI          4.8479  -14.3009   43.0268 Ti      1  UNL1        0.0000
   2722 TI          3.8494  -12.6226   41.1224 Ti      1  UNL1        0.0000
   2723 TI          5.2249  -23.7174   50.7532 Ti      1  UNL1        0.0000
   2724 TI          0.1893  -21.2627   48.7283 Ti      1  UNL1        0.0000
   2725 TI          8.0827  -16.3430   43.1024 Ti      1  UNL1        0.0000
   2726 H          -0.2581  -15.6297   50.4003 H      18  UNL18       0.0000
   2727 H          10.8793  -20.5517   41.5757 H       1  UNL1        0.0000
   2728 H          -4.7198  -20.2834   50.2373 H       3  UNL3        0.0000
   2729 H          13.4527  -14.6413   41.4556 H       1  UNL1        0.0000
   2730 H           6.2006  -27.7519   50.3673 H      20  UNL20       0.0000
   2731 H          -0.2092  -13.2125   41.4444 H       1  UNL1        0.0000
   2732 H           4.3438  -14.2594   39.2493 H       1  UNL1        0.0000
   2733 H           8.1950  -16.8883   39.5550 H       1  UNL1        0.0000
   2734 H           5.7349  -24.3845   45.2421 H       1  UNL1        0.0000
   2735 H           3.1245  -12.4639   46.6457 H       1  UNL1        0.0000
   2736 H          -3.8834  -17.8741   48.3724 H       1  UNL1        0.0000
   2737 H          12.8253  -18.7299   43.5610 H       1  UNL1        0.0000
   2738 H          -1.5823  -19.3215   45.0386 H       1  UNL1        0.0000
   2739 H           0.7493  -10.7947   43.4756 H       1  UNL1        0.0000
   2740 H           4.2416   -9.5197   41.9779 H       1  UNL1        0.0000
   2741 H          10.7215  -22.5705   42.7782 H      59  UNL59       0.0000
   2742 H           6.9406  -14.6207   41.6882 H       1  UNL1        0.0000
   2743 H           2.2560  -21.6146   50.0934 H       1  UNL1        0.0000
   2744 H           9.4597  -21.7825   49.1428 H      19  UNL19       0.0000
   2745 H           7.9786  -22.2516   49.8902 H      19  UNL19       0.0000
   2746 H          10.0338  -17.3489   48.0439 H       1  UNL1        0.0000
   2747 H           9.4641  -16.9903   46.4254 H       1  UNL1        0.0000
   2748 H           8.9709  -26.7373   48.9528 H       1  UNL1        0.0000
   2749 H           7.6917  -25.6367   49.4102 H       1  UNL1        0.0000
   2750 C          10.6486  -17.3868   44.1185 C.3     1  UNL1        0.0000
   2751 C          -1.7205  -19.2654   47.7728 C.3     1  UNL1        0.0000
   2752 C           5.9173  -24.4737   47.8751 C.3     1  UNL1        0.0000
   2753 C           2.9118  -12.3304   43.9861 C.3     1  UNL1        0.0000
   2754 C          11.5446  -17.9911   45.1137 C.ar    1  UNL1        0.0000
   2755 C          -2.6524  -18.6404   46.7957 C.ar    1  UNL1        0.0000
   2756 C           6.8574  -25.0881   46.9279 C.2     1  UNL1        0.0000
   2757 C           2.0220  -11.6836   44.9859 C.ar    1  UNL1        0.0000
   2758 C          11.2958  -17.9162   46.5201 C.ar    1  UNL1        0.0000
   2759 C          -2.4360  -18.7604   45.4077 C.ar    1  UNL1        0.0000
   2760 C           7.9869  -25.8484   47.3810 C.2     1  UNL1        0.0000
   2761 C           0.9273  -10.9106   44.5410 C.ar    1  UNL1        0.0000
   2762 C           2.2765  -11.8543   46.3408 C.ar    1  UNL1        0.0000
   2763 C           6.6097  -24.9559   45.5440 C.3     1  UNL1        0.0000
   2764 C          12.6783  -18.6901   44.6380 C.ar    1  UNL1        0.0000
   2765 C          -3.7526  -17.9480   47.2944 C.ar    1  UNL1        0.0000
   2766 C          10.8603  -20.4726   39.4316 C.2     1  UNL1        0.0000
   2767 C           4.3906   -8.6810   39.4566 C.ar    1  UNL1        0.0000
   2768 C          13.3448  -14.7095   39.3056 C.ar    1  UNL1        0.0000
   2769 C          -0.0136  -13.1670   39.2862 C.ar    1  UNL1        0.0000
   2770 C           5.5947  -16.6441   44.9914 C.3     1  UNL1        0.0000
   2771 C           0.8386  -23.7384   46.9095 C.2     1  UNL1        0.0000
   2772 C          10.7245  -19.0177   39.4084 C.2     1  UNL1        0.0000
   2773 C           4.2979  -10.1145   39.4191 C.3     1  UNL1        0.0000
   2774 C          12.0469  -15.3263   39.3524 C.3     1  UNL1        0.0000
   2775 C           1.3888  -12.7527   39.3106 C.3     1  UNL1        0.0000
   2776 C          10.8997  -21.1417   40.6613 C.3     1  UNL1        0.0000
   2777 C          -0.2471  -15.0413   51.3142 C.2    18  UNL18       0.0000
   2778 C          14.0001  -14.4347   40.5395 C.ar    1  UNL1        0.0000
   2779 C          -5.2813  -20.4628   51.1527 C.2     3  UNL3        0.0000
   2780 C           9.4044  -21.5072   51.1672 C.2    19  UNL19       0.0000
   2781 C          -0.7107  -13.3974   40.4987 C.ar    1  UNL1        0.0000
   2782 C           6.2422  -28.2791   51.3163 C.3    52  UNL52       0.0000
   2783 C           4.4044   -7.9298   40.6859 C.ar    1  UNL1        0.0000
   2784 N           4.4594   -8.5286   41.9240 N.pl3   1  UNL1        0.0000
   2785 N           8.8254  -21.6900   49.9282 N.pl3  19  UNL19       0.0000
   2786 N          10.2149  -17.2700   47.0514 N.pl3   1  UNL1        0.0000
   2787 N           8.3179  -26.0066   48.6984 N.pl3   1  UNL1        0.0000
   2788 O           9.4722  -16.9817   44.4843 O.3     1  UNL1        0.0000
   2789 O          -0.9515  -20.2163   47.3745 O.3     1  UNL1        0.0000
   2790 O           6.2987  -24.3492   49.0962 O.3     1  UNL1        0.0000
   2791 O           2.8459  -11.9007   42.7865 O.3     1  UNL1        0.0000
   2792 O           3.6823  -13.2876   44.3726 O.3     1  UNL1        0.0000
   2793 O           4.7468  -24.1053   47.4696 O.3     1  UNL1        0.0000
   2794 O          11.0604  -17.3061   42.9068 O.3     1  UNL1        0.0000
   2795 O          -1.7625  -18.8292   48.9725 O.3     1  UNL1        0.0000
   2796 O           8.3879  -17.5610   41.9078 O.3     1  UNL1        0.0000
   2797 O           0.7417  -19.7023   49.4728 O.3     1  UNL1        0.0000
   2798 O           9.3267  -15.2737   42.3577 O.3     1  UNL1        0.0000
   2799 O          -1.0105  -21.4270   49.9655 O.3     1  UNL1        0.0000
   2800 O           3.5961  -24.6350   50.0602 O.3     1  UNL1        0.0000
   2801 O           5.3645  -12.7396   42.2883 O.3     1  UNL1        0.0000
   2802 O           4.5500  -22.3735   49.5961 O.3     1  UNL1        0.0000
   2803 O           3.6583  -14.4967   41.7709 O.3     1  UNL1        0.0000
   2804 O           5.9673  -25.4892   51.3623 O.3     1  UNL1        0.0000
   2805 O           4.2148  -10.8159   40.5143 O.3     1  UNL1        0.0000
   2806 O           6.7694  -22.7010   51.3572 O.3     1  UNL1        0.0000
   2807 O           1.9788  -12.6517   40.4542 O.3     1  UNL1        0.0000
   2808 O          11.5076  -15.6265   40.5004 O.3     1  UNL1        0.0000
   2809 O          -2.6467  -19.5869   51.2882 O.3     1  UNL1        0.0000
   2810 O          10.7120  -18.3808   40.5298 O.2     1  UNL1        0.0000
   2811 O          -0.3785  -17.8045   51.3695 O.3     1  UNL1        0.0000
   2812 O           6.5797  -15.1695   42.4088 O.3     1  UNL1        0.0000
   2813 O           1.8778  -22.1733   49.3898 O.3     1  UNL1        0.0000
   2814 O           9.0338  -16.3946   39.4760 O.3     1  UNL1        0.0000
   2815 O           4.4662  -13.2926   39.3093 O.3     1  UNL1        0.0000
   2816 H           5.6648  -20.4814   47.6502 H       1  UNL1        0.0000
   2817 H           1.7656  -26.1692   46.1976 H       1  UNL1        0.0000
   2818 H           6.5004  -11.3995   44.8942 H       1  UNL1        0.0000
   2819 H           6.7849  -18.7238   46.2446 H       1  UNL1        0.0000
   2820 H           1.8690  -18.5334   47.0468 H       1  UNL1        0.0000
   2821 H          -1.6854  -23.6095   45.9633 H       1  UNL1        0.0000
   2822 H           3.2154  -20.3796   48.0127 H       1  UNL1        0.0000
   2823 H           2.9958  -16.7664   45.6681 H       1  UNL1        0.0000
   2824 H           7.5826  -13.5955   44.5026 H       1  UNL1        0.0000
   2825 H          -6.0377  -13.4028   45.0390 H       1  UNL1        0.0000
   2826 C           4.9541  -17.6439   45.8813 C.ar    1  UNL1        0.0000
   2827 C           3.7051  -19.6083   47.4195 C.ar    1  UNL1        0.0000
   2828 C           8.1506  -12.7906   44.9700 C.ar    1  UNL1        0.0000
   2829 C           0.1117  -24.7859   46.1471 C.2     1  UNL1        0.0000
   2830 C           3.5665  -17.5805   46.1099 C.ar    1  UNL1        0.0000
   2831 C           5.0888  -19.6670   47.2129 C.ar    1  UNL1        0.0000
   2832 C           7.5366  -11.5519   45.1922 C.ar    1  UNL1        0.0000
   2833 C           0.7295  -26.0256   45.8980 C.3     1  UNL1        0.0000
   2834 C           9.4884  -12.9994   45.3253 C.ar    1  UNL1        0.0000
   2835 C          -1.2260  -24.5756   45.7644 C.3     1  UNL1        0.0000
   2836 C           5.7148  -18.6879   46.4384 C.ar    1  UNL1        0.0000
   2837 C           2.9438  -18.5670   46.8743 C.ar    1  UNL1        0.0000
   2838 O           6.8350  -16.7866   44.6900 O.3     1  UNL1        0.0000
   2839 O           0.2147  -22.6605   47.2228 O.2     1  UNL1        0.0000
   2840 O           2.0360  -23.9839   47.2986 O.2     1  UNL1        0.0000
   2841 O           4.8720  -15.6950   44.5236 O.3     1  UNL1        0.0000
   2842 N           8.0723  -11.2785   64.4765 N.pl3  53  UNL53       0.0000
   2843 N           8.5470  -12.0580   66.4616 N.pl3  53  UNL53       0.0000
   2844 C           8.7511  -12.4736   64.2925 C.2    53  UNL53       0.0000
   2845 C           9.0517  -12.9587   65.5392 C.2    53  UNL53       0.0000
   2846 C           9.8482  -11.1085   68.3504 C.3    53  UNL53       0.0000
   2847 C           7.5797  -10.3939   63.4130 C.3    53  UNL53       0.0000
   2848 C           7.9526  -11.0496   65.7964 C.3    53  UNL53       0.0000
   2849 C           8.7617  -12.0943   67.9267 C.3    53  UNL53       0.0000
   2850 H           8.9832  -12.8697   63.3117 H      53  UNL53       0.0000
   2851 H           9.5699  -13.8600   65.8434 H      53  UNL53       0.0000
   2852 H          10.8029  -11.3378   67.8602 H      53  UNL53       0.0000
   2853 H           8.4185  -10.1099   62.7686 H      53  UNL53       0.0000
   2854 H           9.5703  -10.0745   68.1099 H      53  UNL53       0.0000
   2855 H           6.8203  -10.9327   62.8346 H      53  UNL53       0.0000
   2856 H           9.9931  -11.1768   69.4370 H      53  UNL53       0.0000
   2857 H           9.0480  -13.1254   68.1741 H      53  UNL53       0.0000
   2858 H           7.1374   -9.5049   63.8733 H      53  UNL53       0.0000
   2859 H           7.4529  -10.2006   66.2460 H      53  UNL53       0.0000
   2860 H           7.7939  -11.8890   68.4001 H      53  UNL53       0.0000
   2861 TI          6.6270   16.2850   11.2794 Ti      1  UNL1        0.0000
   2862 TI         17.4574   19.1662    1.9146 Ti      1  UNL1        0.0000
   2863 TI         10.7237   12.3488    9.4595 Ti      1  UNL1        0.0000
   2864 TI         12.2348   21.5109    3.6864 Ti      1  UNL1        0.0000
   2865 TI         11.2363   23.1893    1.7820 Ti      1  UNL1        0.0000
   2866 TI         12.6119   12.0945   11.4128 Ti      1  UNL1        0.0000
   2867 TI          7.5762   14.5491    9.3880 Ti      1  UNL1        0.0000
   2868 TI         15.4696   19.4688    3.7621 Ti      1  UNL1        0.0000
   2869 H           7.1288   20.1821   11.0600 H       1  UNL1        0.0000
   2870 H          18.2662   15.2602    2.2353 H       1  UNL1        0.0000
   2871 H           2.6671   15.5284   10.8970 H       1  UNL1        0.0000
   2872 H          20.8396   21.1705    2.1153 H       1  UNL1        0.0000
   2873 H          13.5875    8.0599   11.0269 H       1  UNL1        0.0000
   2874 H           7.1778   22.5994    2.1041 H       1  UNL1        0.0000
   2875 H          11.7307   21.5524   -0.0910 H       1  UNL1        0.0000
   2876 H          15.5819   18.9235    0.2147 H       1  UNL1        0.0000
   2877 H          13.1218   11.4274    5.9017 H       1  UNL1        0.0000
   2878 H          10.5114   23.3480    7.3054 H       1  UNL1        0.0000
   2879 H           3.5036   17.9377    9.0321 H       1  UNL1        0.0000
   2880 H          20.2122   17.0819    4.2206 H       1  UNL1        0.0000
   2881 H           5.8047   16.4903    5.6982 H       1  UNL1        0.0000
   2882 H           8.1362   25.0171    4.1353 H       1  UNL1        0.0000
   2883 H          11.6285   26.2921    2.6375 H       1  UNL1        0.0000
   2884 H          18.1084   13.2413    3.4378 H       1  UNL1        0.0000
   2885 H          14.3275   21.1911    2.3478 H       1  UNL1        0.0000
   2886 H           9.6430   14.1972   10.7531 H       1  UNL1        0.0000
   2887 H          16.8466   14.0293    9.8025 H       1  UNL1        0.0000
   2888 H          15.3655   13.5603   10.5498 H       1  UNL1        0.0000
   2889 H          17.4207   18.4630    8.7036 H       1  UNL1        0.0000
   2890 H          16.8510   18.8215    7.0851 H       1  UNL1        0.0000
   2891 H          16.3578    9.0745    9.6125 H       1  UNL1        0.0000
   2892 H          15.0786   10.1751   10.0699 H       1  UNL1        0.0000
   2893 C          18.0355   18.4250    4.7782 C.3     1  UNL1        0.0000
   2894 C           5.6664   16.5464    8.4324 C.3     1  UNL1        0.0000
   2895 C          13.3042   11.3381    8.5347 C.3     1  UNL1        0.0000
   2896 C          10.2987   23.4815    4.6458 C.3     1  UNL1        0.0000
   2897 C          18.9315   17.8207    5.7734 C.ar    1  UNL1        0.0000
   2898 C           4.7345   17.1714    7.4554 C.ar    1  UNL1        0.0000
   2899 C          14.2444   10.7238    7.5876 C.ar    1  UNL1        0.0000
   2900 C           9.4089   24.1283    5.6456 C.ar    1  UNL1        0.0000
   2901 C          18.6827   17.8956    7.1798 C.ar    1  UNL1        0.0000
   2902 C           4.9509   17.0514    6.0673 C.ar    1  UNL1        0.0000
   2903 C          15.3738    9.9635    8.0406 C.ar    1  UNL1        0.0000
   2904 C           8.3142   24.9012    5.2007 C.ar    1  UNL1        0.0000
   2905 C           9.6634   23.9575    7.0005 C.ar    1  UNL1        0.0000
   2906 C          13.9967   10.8559    6.2036 C.ar    1  UNL1        0.0000
   2907 C          20.0652   17.1217    5.2977 C.ar    1  UNL1        0.0000
   2908 C           3.6344   17.8638    7.9541 C.ar    1  UNL1        0.0000
   2909 C          18.2473   15.3392    0.0912 C.2     1  UNL1        0.0000
   2910 C          11.7775   27.1308    0.1162 C.2     1  UNL1        0.0000
   2911 C          20.7317   21.1024   -0.0348 C.2     1  UNL1        0.0000
   2912 C           7.3734   22.6448   -0.0542 C.2     1  UNL1        0.0000
   2913 C          12.9816   19.1678    5.6510 C.3     1  UNL1        0.0000
   2914 C           8.2255   12.0734    7.5692 C.3     1  UNL1        0.0000
   2915 C          18.1114   16.7941    0.0680 C.2     1  UNL1        0.0000
   2916 C          11.6848   25.6973    0.0787 C.2     1  UNL1        0.0000
   2917 C          19.4339   20.4855    0.0121 C.2     1  UNL1        0.0000
   2918 C           8.7757   23.0591   -0.0297 C.2     1  UNL1        0.0000
   2919 C          18.2866   14.6701    1.3209 C.2     1  UNL1        0.0000
   2920 C           7.1398   20.7705   11.9739 C.ar    1  UNL1        0.0000
   2921 C          21.3870   21.3772    1.1992 C.2     1  UNL1        0.0000
   2922 C           2.1056   15.3490   11.8124 C.ar    1  UNL1        0.0000
   2923 C          16.7913   14.3046   11.8268 C.ar    1  UNL1        0.0000
   2924 C           6.6762   22.4144    1.1583 C.2     1  UNL1        0.0000
   2925 C          13.6291    7.5328   11.9760 C.ar    1  UNL1        0.0000
   2926 C          11.7913   27.8820    1.3455 C.2     1  UNL1        0.0000
   2927 N          11.8464   27.2832    2.5837 N.pl3   1  UNL1        0.0000
   2928 N          16.2123   14.1218   10.5879 N.pl3   1  UNL1        0.0000
   2929 N          17.6019   18.5418    7.7111 N.pl3   1  UNL1        0.0000
   2930 N          15.7048    9.8052    9.3580 N.pl3   1  UNL1        0.0000
   2931 O          16.8592   18.8301    5.1440 O.3     1  UNL1        0.0000
   2932 O           6.4354   15.5955    8.0341 O.3     1  UNL1        0.0000
   2933 O          13.6856   11.4626    9.7559 O.3     1  UNL1        0.0000
   2934 O          10.2329   23.9111    3.4462 O.3     1  UNL1        0.0000
   2935 O          11.0692   22.5242    5.0323 O.3     1  UNL1        0.0000
   2936 O          12.1337   11.7065    8.1292 O.3     1  UNL1        0.0000
   2937 O          18.4474   18.5057    3.5664 O.3     1  UNL1        0.0000
   2938 O           5.6244   16.9826    9.6321 O.3     1  UNL1        0.0000
   2939 O          15.7749   18.2509    2.5674 O.3     1  UNL1        0.0000
   2940 O           8.1286   16.1095   10.1325 O.3     1  UNL1        0.0000
   2941 O          16.7136   20.5382    3.0174 O.3     1  UNL1        0.0000
   2942 O           6.3765   14.3848   10.6252 O.3     1  UNL1        0.0000
   2943 O          10.9830   11.1768   10.7199 O.3     1  UNL1        0.0000
   2944 O          12.7514   23.0723    2.9480 O.3     1  UNL1        0.0000
   2945 O          11.9369   13.4383   10.2557 O.3     1  UNL1        0.0000
   2946 O          11.0452   21.3151    2.4305 O.3     1  UNL1        0.0000
   2947 O          13.3542   10.3226   12.0219 O.3     1  UNL1        0.0000
   2948 O          11.6017   24.9959    1.1739 O.2     1  UNL1        0.0000
   2949 O          14.1563   13.1108   12.0168 O.3     1  UNL1        0.0000
   2950 O           9.3657   23.1601    1.1139 O.2     1  UNL1        0.0000
   2951 O          18.8945   20.1853    1.1601 O.2     1  UNL1        0.0000
   2952 O           4.7402   16.2250   11.9479 O.3     1  UNL1        0.0000
   2953 O          18.0990   17.4310    1.1895 O.2     1  UNL1        0.0000
   2954 O           7.0084   18.0073   12.0292 O.3     1  UNL1        0.0000
   2955 O          13.9666   20.6423    3.0685 O.3     1  UNL1        0.0000
   2956 O           9.2647   13.6385   10.0495 O.3     1  UNL1        0.0000
   2957 O          16.4207   19.4172    0.1357 O.3     1  UNL1        0.0000
   2958 O          11.8531   22.5192   -0.0311 O.3     1  UNL1        0.0000
   2959 H          13.0517   15.3305    8.3098 H       1  UNL1        0.0000
   2960 H           9.1525    9.6427    6.8572 H       1  UNL1        0.0000
   2961 H          13.8873   24.4123    5.5539 H       1  UNL1        0.0000
   2962 H          14.1718   17.0880    6.9042 H       1  UNL1        0.0000
   2963 H           9.2560   17.2784    7.7065 H       1  UNL1        0.0000
   2964 H           5.7015   12.2023    6.6230 H       1  UNL1        0.0000
   2965 H          10.6023   15.4322    8.6724 H       1  UNL1        0.0000
   2966 H          10.3827   19.0454    6.3278 H       1  UNL1        0.0000
   2967 H          14.9695   22.2163    5.1623 H       1  UNL1        0.0000
   2968 H           1.3492   22.4090    5.6987 H       1  UNL1        0.0000
   2969 C          12.3410   18.1679    6.5410 C.ar    1  UNL1        0.0000
   2970 C          11.0920   16.2036    8.0792 C.ar    1  UNL1        0.0000
   2971 C          15.5375   23.0212    5.6297 C.ar    1  UNL1        0.0000
   2972 C           7.4987   11.0259    6.8067 C.ar    1  UNL1        0.0000
   2973 C          10.9534   18.2313    6.7695 C.ar    1  UNL1        0.0000
   2974 C          12.4757   16.1449    7.8725 C.ar    1  UNL1        0.0000
   2975 C          14.9236   24.2599    5.8518 C.ar    1  UNL1        0.0000
   2976 C           8.1164    9.7863    6.5577 C.ar    1  UNL1        0.0000
   2977 C          16.8753   22.8125    5.9850 C.ar    1  UNL1        0.0000
   2978 C           6.1609   11.2363    6.4241 C.ar    1  UNL1        0.0000
   2979 C          13.1017   17.1239    7.0981 C.ar    1  UNL1        0.0000
   2980 C          10.3307   17.2448    7.5340 C.ar    1  UNL1        0.0000
   2981 O          14.2219   19.0252    5.3497 O.3     1  UNL1        0.0000
   2982 O           7.6016   13.1513    7.8825 O.3     1  UNL1        0.0000
   2983 O           9.4229   11.8279    7.9583 O.3     1  UNL1        0.0000
   2984 O          12.2589   20.1168    5.1833 O.3     1  UNL1        0.0000
   2985 N          15.4592   24.5333   25.1362 N.pl3  54  UNL54       0.0000
   2986 N          15.9339   23.7538   27.1212 N.pl3  54  UNL54       0.0000
   2987 C          16.1380   23.3382   24.9522 C.2    54  UNL54       0.0000
   2988 C          16.4386   22.8531   26.1988 C.2    54  UNL54       0.0000
   2989 C          17.2351   24.7034   29.0101 C.3    54  UNL54       0.0000
   2990 C          14.9666   25.4179   24.0727 C.3    54  UNL54       0.0000
   2991 C          15.3395   24.7622   26.4560 C.3    54  UNL54       0.0000
   2992 C          16.1486   23.7175   28.5863 C.3    54  UNL54       0.0000
   2993 H          16.3701   22.9422   23.9714 H      54  UNL54       0.0000
   2994 H          16.9568   21.9518   26.5030 H      54  UNL54       0.0000
   2995 H          18.1898   24.4741   28.5199 H      54  UNL54       0.0000
   2996 H          15.8054   25.7019   23.4282 H      54  UNL54       0.0000
   2997 H          16.9572   25.7374   28.7695 H      54  UNL54       0.0000
   2998 H          14.2072   24.8791   23.4942 H      54  UNL54       0.0000
   2999 H          17.3800   24.6350   30.0966 H      54  UNL54       0.0000
   3000 H          16.4349   22.6865   28.8338 H      54  UNL54       0.0000
   3001 H          14.5243   26.3069   24.5329 H      54  UNL54       0.0000
   3002 H          14.8398   25.6113   26.9056 H      54  UNL54       0.0000
   3003 H          15.1808   23.9229   29.0598 H      54  UNL54       0.0000
   3004 TI          1.9923    9.2186   24.3741 Ti      1  UNL1        0.0000
   3005 TI         12.8228   12.0998   15.0092 Ti      1  UNL1        0.0000
   3006 TI          6.0890    5.2824   22.5541 Ti      1  UNL1        0.0000
   3007 TI          7.6002   14.4445   16.7810 Ti      1  UNL1        0.0000
   3008 TI          6.6016   16.1228   14.8767 Ti      1  UNL1        0.0000
   3009 TI          7.9772    5.0280   24.5074 Ti      1  UNL1        0.0000
   3010 TI          2.9415    7.4827   22.4826 Ti      1  UNL1        0.0000
   3011 TI         10.8350   12.4023   16.8567 Ti      1  UNL1        0.0000
   3012 H           2.4942   13.1157   24.1546 H       1  UNL1        0.0000
   3013 H          13.6316    8.1937   15.3299 H       1  UNL1        0.0000
   3014 H          -1.9676    8.4619   23.9916 H       1  UNL1        0.0000
   3015 H          16.2049   14.1041   15.2099 H       1  UNL1        0.0000
   3016 H           8.9528    0.9935   24.1215 H       1  UNL1        0.0000
   3017 H           2.5431   15.5329   15.1987 H       1  UNL1        0.0000
   3018 H           7.0961   14.4860   13.0036 H       1  UNL1        0.0000
   3019 H          10.9473   11.8571   13.3093 H       1  UNL1        0.0000
   3020 H           8.4871    4.3609   18.9963 H       1  UNL1        0.0000
   3021 H           5.8768   16.2815   20.4000 H       1  UNL1        0.0000
   3022 H          -1.1311   10.8713   22.1267 H       1  UNL1        0.0000
   3023 H          15.5776   10.0155   17.3152 H       1  UNL1        0.0000
   3024 H           1.1700    9.4239   18.7928 H       1  UNL1        0.0000
   3025 H           3.5016   17.9507   17.2299 H       1  UNL1        0.0000
   3026 H           6.9939   19.2256   15.7321 H       1  UNL1        0.0000
   3027 H          13.4737    6.1749   16.5324 H       1  UNL1        0.0000
   3028 H           9.6928   14.1246   15.4424 H       1  UNL1        0.0000
   3029 H           5.0083    7.1308   23.8477 H       1  UNL1        0.0000
   3030 H          12.2120    6.9629   22.8971 H       1  UNL1        0.0000
   3031 H          10.7308    6.4938   23.6444 H       1  UNL1        0.0000
   3032 H          12.7861   11.3965   21.7982 H       1  UNL1        0.0000
   3033 H          12.2164   11.7551   20.1797 H       1  UNL1        0.0000
   3034 H          11.7231    2.0081   22.7071 H       1  UNL1        0.0000
   3035 H          10.4440    3.1086   23.1645 H       1  UNL1        0.0000
   3036 C          13.4008   11.3585   17.8728 C.3     1  UNL1        0.0000
   3037 C           1.0318    9.4800   21.5270 C.3     1  UNL1        0.0000
   3038 C           8.6695    4.2717   21.6294 C.3     1  UNL1        0.0000
   3039 C           5.6641   16.4150   17.7404 C.3     1  UNL1        0.0000
   3040 C          14.2969   10.7542   18.8680 C.ar    1  UNL1        0.0000
   3041 C           0.0999   10.1050   20.5500 C.ar    1  UNL1        0.0000
   3042 C           9.6097    3.6573   20.6822 C.ar    1  UNL1        0.0000
   3043 C           4.7743   17.0618   18.7402 C.ar    1  UNL1        0.0000
   3044 C          14.0481   10.8291   20.2744 C.ar    1  UNL1        0.0000
   3045 C           0.3163    9.9850   19.1620 C.ar    1  UNL1        0.0000
   3046 C          10.7392    2.8970   21.1352 C.ar    1  UNL1        0.0000
   3047 C           3.6795   17.8348   18.2953 C.ar    1  UNL1        0.0000
   3048 C           5.0288   16.8911   20.0951 C.ar    1  UNL1        0.0000
   3049 C           9.3620    3.7895   19.2982 C.ar    1  UNL1        0.0000
   3050 C          15.4305   10.0552   18.3923 C.ar    1  UNL1        0.0000
   3051 C          -1.0003   10.7974   21.0487 C.ar    1  UNL1        0.0000
   3052 C          13.6126    8.2728   13.1858 C.ar    1  UNL1        0.0000
   3053 C           7.1429   20.0644   13.2108 C.ar    1  UNL1        0.0000
   3054 C          16.0970   14.0359   13.0598 C.ar    1  UNL1        0.0000
   3055 C           2.7387   15.5784   13.0404 C.ar    1  UNL1        0.0000
   3056 C           8.3469   12.1013   18.7456 C.3     1  UNL1        0.0000
   3057 C           3.5908    5.0070   20.6638 C.3     1  UNL1        0.0000
   3058 C          13.4768    9.7277   13.1626 C.3     1  UNL1        0.0000
   3059 C           7.0501   18.6309   13.1734 C.3     1  UNL1        0.0000
   3060 C          14.7992   13.4191   13.1067 C.3     1  UNL1        0.0000
   3061 C           4.1410   15.9927   13.0649 C.3     1  UNL1        0.0000
   3062 C          13.6520    7.6037   14.4155 C.ar    1  UNL1        0.0000
   3063 C           2.5051   13.7041   25.0685 C.ar    1  UNL1        0.0000
   3064 C          16.7523   14.3107   14.2938 C.ar    1  UNL1        0.0000
   3065 C          -2.5291    8.2826   24.9070 C.ar    1  UNL1        0.0000
   3066 C          12.1567    7.2382   24.9215 C.ar    1  UNL1        0.0000
   3067 C           2.0415   15.3479   14.2529 C.ar    1  UNL1        0.0000
   3068 C           8.9945    0.4663   25.0706 C.ar    1  UNL1        0.0000
   3069 C           7.1567   20.8156   14.4401 C.ar    1  UNL1        0.0000
   3070 N           7.2117   20.2167   15.6783 N.pl3   1  UNL1        0.0000
   3071 N          11.5777    7.0554   23.6825 N.pl3   1  UNL1        0.0000
   3072 N          12.9672   11.4754   20.8057 N.pl3   1  UNL1        0.0000
   3073 N          11.0702    2.7388   22.4526 N.pl3   1  UNL1        0.0000
   3074 O          12.2245   11.7636   18.2386 O.3     1  UNL1        0.0000
   3075 O           1.8008    8.5291   21.1287 O.3     1  UNL1        0.0000
   3076 O           9.0510    4.3962   22.8505 O.3     1  UNL1        0.0000
   3077 O           5.5982   16.8447   16.5408 O.3     1  UNL1        0.0000
   3078 O           6.4345   15.4578   18.1269 O.3     1  UNL1        0.0000
   3079 O           7.4991    4.6401   21.2238 O.3     1  UNL1        0.0000
   3080 O          13.8127   11.4393   16.6610 O.3     1  UNL1        0.0000
   3081 O           0.9898    9.9162   22.7267 O.3     1  UNL1        0.0000
   3082 O          11.1402   11.1844   15.6620 O.3     1  UNL1        0.0000
   3083 O           3.4940    9.0430   23.2271 O.3     1  UNL1        0.0000
   3084 O          12.0790   13.4717   16.1120 O.3     1  UNL1        0.0000
   3085 O           1.7418    7.3184   23.7198 O.3     1  UNL1        0.0000
   3086 O           6.3483    4.1104   23.8145 O.3     1  UNL1        0.0000
   3087 O           8.1168   16.0058   16.0426 O.3     1  UNL1        0.0000
   3088 O           7.3023    6.3719   23.3503 O.3     1  UNL1        0.0000
   3089 O           6.4105   14.2487   15.5251 O.3     1  UNL1        0.0000
   3090 O           8.7195    3.2562   25.1166 O.3     1  UNL1        0.0000
   3091 O           6.9670   17.9294   14.2686 O.3     1  UNL1        0.0000
   3092 O           9.5217    6.0444   25.1114 O.3     1  UNL1        0.0000
   3093 O           4.7311   16.0937   14.2085 O.3     1  UNL1        0.0000
   3094 O          14.2599   13.1189   14.2547 O.3     1  UNL1        0.0000
   3095 O           0.1055    9.1585   25.0425 O.3     1  UNL1        0.0000
   3096 O          13.4643   10.3646   14.2841 O.3     1  UNL1        0.0000
   3097 O           2.3737   10.9409   25.1238 O.3     1  UNL1        0.0000
   3098 O           9.3320   13.5759   16.1631 O.3     1  UNL1        0.0000
   3099 O           4.6301    6.5721   23.1441 O.3     1  UNL1        0.0000
   3100 O          11.7861   12.3508   13.2303 O.3     1  UNL1        0.0000
   3101 O           7.2185   15.4528   13.0635 O.3     1  UNL1        0.0000
   3102 H           8.4171    8.2640   21.4044 H       1  UNL1        0.0000
   3103 H           4.5179    2.5762   19.9518 H       1  UNL1        0.0000
   3104 H           9.2526   17.3459   18.6485 H       1  UNL1        0.0000
   3105 H           9.5372   10.0216   19.9988 H       1  UNL1        0.0000
   3106 H           4.6213   10.2120   20.8011 H       1  UNL1        0.0000
   3107 H           1.0668    5.1359   19.7176 H       1  UNL1        0.0000
   3108 H           5.9677    8.3658   21.7670 H       1  UNL1        0.0000
   3109 H           5.7480   11.9789   19.4224 H       1  UNL1        0.0000
   3110 H          10.3349   15.1499   18.2569 H       1  UNL1        0.0000
   3111 H          -3.2855   15.3426   18.7933 H       1  UNL1        0.0000
   3112 C           7.7064   11.1015   19.6356 C.ar    1  UNL1        0.0000
   3113 C           6.4574    9.1371   21.1738 C.ar    1  UNL1        0.0000
   3114 C          10.9029   15.9548   18.7243 C.ar    1  UNL1        0.0000
   3115 C           2.8640    3.9595   19.9013 C.ar    1  UNL1        0.0000
   3116 C           6.3188   11.1648   19.8641 C.ar    1  UNL1        0.0000
   3117 C           7.8411    9.0784   20.9671 C.ar    1  UNL1        0.0000
   3118 C          10.2889   17.1935   18.9465 C.ar    1  UNL1        0.0000
   3119 C           3.4818    2.7198   19.6523 C.ar    1  UNL1        0.0000
   3120 C          12.2406   15.7460   19.0796 C.ar    1  UNL1        0.0000
   3121 C           1.5262    4.1698   19.5187 C.ar    1  UNL1        0.0000
   3122 C           8.4670   10.0575   20.1927 C.ar    1  UNL1        0.0000
   3123 C           5.6961   10.1784   20.6286 C.ar    1  UNL1        0.0000
   3124 O           9.5873   11.9588   18.4443 O.3     1  UNL1        0.0000
   3125 O           2.9669    6.0849   20.9771 O.3     1  UNL1        0.0000
   3126 O           4.7883    4.7615   21.0529 O.3     1  UNL1        0.0000
   3127 O           7.6242   13.0504   18.2779 O.3     1  UNL1        0.0000
   3128 N          10.8246   17.4668   38.2308 N.pl3  55  UNL55       0.0000
   3129 N          11.2993   16.6874   40.2158 N.pl3  55  UNL55       0.0000
   3130 C          11.5033   16.2717   38.0468 C.2    55  UNL55       0.0000
   3131 C          11.8040   15.7867   39.2934 C.2    55  UNL55       0.0000
   3132 C          12.6004   17.6369   42.1047 C.3    55  UNL55       0.0000
   3133 C          10.3319   18.3515   37.1673 C.3    55  UNL55       0.0000
   3134 C          10.7049   17.6958   39.5507 C.3    55  UNL55       0.0000
   3135 C          11.5140   16.6511   41.6809 C.3    55  UNL55       0.0000
   3136 H          11.7354   15.8757   37.0660 H      55  UNL55       0.0000
   3137 H          12.3221   14.8854   39.5977 H      55  UNL55       0.0000
   3138 H          13.5552   17.4076   41.6145 H      55  UNL55       0.0000
   3139 H          11.1707   18.6354   36.5228 H      55  UNL55       0.0000
   3140 H          12.3226   18.6709   41.8641 H      55  UNL55       0.0000
   3141 H           9.5725   17.8127   36.5888 H      55  UNL55       0.0000
   3142 H          12.7454   17.5686   43.1912 H      55  UNL55       0.0000
   3143 H          11.8003   15.6200   41.9284 H      55  UNL55       0.0000
   3144 H           9.8896   19.2405   37.6275 H      55  UNL55       0.0000
   3145 H          10.2052   18.5448   40.0003 H      55  UNL55       0.0000
   3146 H          10.5461   16.8564   42.1544 H      55  UNL55       0.0000
   3147 TI         -2.6423    2.1521   37.4687 Ti      1  UNL1        0.0000
   3148 TI          8.1882    5.0333   28.1039 Ti      1  UNL1        0.0000
   3149 TI          1.4544   -1.7841   35.6487 Ti      1  UNL1        0.0000
   3150 TI          2.9656    7.3781   29.8757 Ti      1  UNL1        0.0000
   3151 TI          1.9670    9.0564   27.9713 Ti      1  UNL1        0.0000
   3152 TI          3.3426   -2.0384   37.6021 Ti      1  UNL1        0.0000
   3153 TI         -1.6931    0.4162   35.5772 Ti      1  UNL1        0.0000
   3154 TI          6.2003    5.3359   29.9513 Ti      1  UNL1        0.0000
   3155 H          -2.1404    6.0492   37.2492 H       1  UNL1        0.0000
   3156 H           8.9969    1.1273   28.4245 H       1  UNL1        0.0000
   3157 H          -6.6022    1.3955   37.0862 H       1  UNL1        0.0000
   3158 H          11.5703    7.0376   28.3045 H       1  UNL1        0.0000
   3159 H           4.3182   -6.0729   37.2161 H       1  UNL1        0.0000
   3160 H          -2.0915    8.4665   28.2933 H       1  UNL1        0.0000
   3161 H           2.4614    7.4196   26.0982 H       1  UNL1        0.0000
   3162 H           6.3126    4.7907   26.4039 H       1  UNL1        0.0000
   3163 H           3.8525   -2.7055   32.0910 H       1  UNL1        0.0000
   3164 H           1.2421    9.2151   33.4946 H       1  UNL1        0.0000
   3165 H          -5.7657    3.8049   35.2213 H       1  UNL1        0.0000
   3166 H          10.9429    2.9490   30.4099 H       1  UNL1        0.0000
   3167 H          -3.4646    2.3574   31.8874 H       1  UNL1        0.0000
   3168 H          -1.1331   10.8842   30.3245 H       1  UNL1        0.0000
   3169 H           2.3592   12.1592   28.8267 H       1  UNL1        0.0000
   3170 H           8.8391   -0.8915   29.6270 H       1  UNL1        0.0000
   3171 H           5.0582    7.0582   28.5370 H       1  UNL1        0.0000
   3172 H           0.3737    0.0643   36.9423 H       1  UNL1        0.0000
   3173 H           7.5773   -0.1036   35.9917 H       1  UNL1        0.0000
   3174 H           6.0962   -0.5726   36.7391 H       1  UNL1        0.0000
   3175 H           8.1514    4.3301   34.8928 H       1  UNL1        0.0000
   3176 H           7.5817    4.6887   33.2743 H       1  UNL1        0.0000
   3177 H           7.0885   -5.0584   35.8017 H       1  UNL1        0.0000
   3178 H           5.8093   -3.9578   36.2591 H       1  UNL1        0.0000
   3179 C           8.7662    4.2921   30.9674 C.3     1  UNL1        0.0000
   3180 C          -3.6029    2.4135   34.6216 C.3     1  UNL1        0.0000
   3181 C           4.0349   -2.7948   34.7240 C.3     1  UNL1        0.0000
   3182 C           1.0294    9.3486   30.8350 C.3     1  UNL1        0.0000
   3183 C           9.6622    3.6878   31.9626 C.ar    1  UNL1        0.0000
   3184 C          -4.5348    3.0385   33.6446 C.ar    1  UNL1        0.0000
   3185 C           4.9751   -3.4091   33.7768 C.ar    1  UNL1        0.0000
   3186 C           0.1396    9.9954   31.8348 C.ar    1  UNL1        0.0000
   3187 C           9.4134    3.7627   33.3690 C.ar    1  UNL1        0.0000
   3188 C          -4.3184    2.9186   32.2566 C.ar    1  UNL1        0.0000
   3189 C           6.1045   -4.1694   34.2298 C.ar    1  UNL1        0.0000
   3190 C          -0.9551   10.7683   31.3899 C.ar    1  UNL1        0.0000
   3191 C           0.3941    9.8246   33.1897 C.ar    1  UNL1        0.0000
   3192 C           4.7274   -3.2770   32.3929 C.ar    1  UNL1        0.0000
   3193 C          10.7959    2.9888   31.4869 C.ar    1  UNL1        0.0000
   3194 C          -5.6349    3.7309   34.1433 C.ar    1  UNL1        0.0000
   3195 C           8.9780    1.2064   26.2804 C.ar    1  UNL1        0.0000
   3196 C           2.5082   12.9980   26.3055 C.ar    1  UNL1        0.0000
   3197 C          11.4624    6.9695   26.1544 C.ar    1  UNL1        0.0000
   3198 C          -1.8959    8.5119   26.1351 C.ar    1  UNL1        0.0000
   3199 C           3.7123    5.0349   31.8402 C.3     1  UNL1        0.0000
   3200 C          -1.0438   -2.0595   33.7584 C.3     1  UNL1        0.0000
   3201 C           8.8421    2.6612   26.2572 C.3     1  UNL1        0.0000
   3202 C           2.4155   11.5644   26.2680 C.3     1  UNL1        0.0000
   3203 C          10.1646    6.3527   26.2013 C.3     1  UNL1        0.0000
   3204 C          -0.4936    8.9263   26.1595 C.3     1  UNL1        0.0000
   3205 C           9.0173    0.5373   27.5101 C.ar    1  UNL1        0.0000
   3206 C          -2.1295    6.6376   38.1631 C.ar    1  UNL1        0.0000
   3207 C          12.1177    7.2443   27.3884 C.ar    1  UNL1        0.0000
   3208 C          -7.1637    1.2161   38.0016 C.ar    1  UNL1        0.0000
   3209 C           7.5221    0.1718   38.0161 C.ar    1  UNL1        0.0000
   3210 C          -2.5931    8.2815   27.3475 C.ar    1  UNL1        0.0000
   3211 C           4.3598   -6.6001   38.1652 C.ar    1  UNL1        0.0000
   3212 C           2.5220   13.7491   27.5347 C.ar    1  UNL1        0.0000
   3213 N           2.5771   13.1503   28.7729 N.pl3   1  UNL1        0.0000
   3214 N           6.9430   -0.0111   36.7771 N.pl3   1  UNL1        0.0000
   3215 N           8.3326    4.4090   33.9003 N.pl3   1  UNL1        0.0000
   3216 N           6.4355   -4.3277   35.5472 N.pl3   1  UNL1        0.0000
   3217 O           7.5899    4.6972   31.3332 O.3     1  UNL1        0.0000
   3218 O          -2.8339    1.4627   34.2234 O.3     1  UNL1        0.0000
   3219 O           4.4163   -2.6703   35.9451 O.3     1  UNL1        0.0000
   3220 O           0.9636    9.7782   29.6354 O.3     1  UNL1        0.0000
   3221 O           1.7999    8.3914   31.2215 O.3     1  UNL1        0.0000
   3222 O           2.8644   -2.4263   34.3184 O.3     1  UNL1        0.0000
   3223 O           9.1781    4.3729   29.7556 O.3     1  UNL1        0.0000
   3224 O          -3.6449    2.8498   35.8213 O.3     1  UNL1        0.0000
   3225 O           6.5056    4.1180   28.7566 O.3     1  UNL1        0.0000
   3226 O          -1.1407    1.9766   36.3217 O.3     1  UNL1        0.0000
   3227 O           7.4443    6.4053   29.2066 O.3     1  UNL1        0.0000
   3228 O          -2.8928    0.2519   36.8144 O.3     1  UNL1        0.0000
   3229 O           1.7137   -2.9560   36.9091 O.3     1  UNL1        0.0000
   3230 O           3.4821    8.9394   29.1372 O.3     1  UNL1        0.0000
   3231 O           2.6676   -0.6945   36.4449 O.3     1  UNL1        0.0000
   3232 O           1.7759    7.1823   28.6197 O.3     1  UNL1        0.0000
   3233 O           4.0849   -3.8103   38.2112 O.3     1  UNL1        0.0000
   3234 O           2.3324   10.8630   27.3632 O.3     1  UNL1        0.0000
   3235 O           4.8870   -1.0221   38.2060 O.3     1  UNL1        0.0000
   3236 O           0.0964    9.0273   27.3031 O.3     1  UNL1        0.0000
   3237 O           9.6252    6.0525   27.3493 O.3     1  UNL1        0.0000
   3238 O          -4.5291    2.0921   38.1371 O.3     1  UNL1        0.0000
   3239 O           8.8297    3.2981   27.3787 O.3     1  UNL1        0.0000
   3240 O          -2.2609    3.8744   38.2184 O.3     1  UNL1        0.0000
   3241 O           4.6973    6.5094   29.2577 O.3     1  UNL1        0.0000
   3242 O          -0.0046   -0.4944   36.2387 O.3     1  UNL1        0.0000
   3243 O           7.1515    5.2843   26.3249 O.3     1  UNL1        0.0000
   3244 O           2.5838    8.3864   26.1582 O.3     1  UNL1        0.0000
   3245 H           3.7824    1.1976   34.4991 H       1  UNL1        0.0000
   3246 H          -0.1168   -4.4902   33.0464 H       1  UNL1        0.0000
   3247 H           4.6180   10.2795   31.7431 H       1  UNL1        0.0000
   3248 H           4.9025    2.9552   33.0935 H       1  UNL1        0.0000
   3249 H          -0.0133    3.1455   33.8957 H       1  UNL1        0.0000
   3250 H          -3.5678   -1.9305   32.8122 H       1  UNL1        0.0000
   3251 H           1.3330    1.2994   34.8616 H       1  UNL1        0.0000
   3252 H           1.1134    4.9125   32.5170 H       1  UNL1        0.0000
   3253 H           5.7002    8.0835   31.3515 H       1  UNL1        0.0000
   3254 H          -7.9201    8.2761   31.8879 H       1  UNL1        0.0000
   3255 C           3.0717    4.0350   32.7302 C.ar    1  UNL1        0.0000
   3256 C           1.8227    2.0707   34.2684 C.ar    1  UNL1        0.0000
   3257 C           6.2682    8.8883   31.8189 C.ar    1  UNL1        0.0000
   3258 C          -1.7706   -3.1069   32.9959 C.ar    1  UNL1        0.0000
   3259 C           1.6841    4.0984   32.9588 C.ar    1  UNL1        0.0000
   3260 C           3.2064    2.0120   34.0617 C.ar    1  UNL1        0.0000
   3261 C           5.6543   10.1271   32.0411 C.ar    1  UNL1        0.0000
   3262 C          -1.1529   -4.3466   32.7469 C.ar    1  UNL1        0.0000
   3263 C           7.6060    8.6796   32.1742 C.ar    1  UNL1        0.0000
   3264 C          -3.1084   -2.8966   32.6133 C.ar    1  UNL1        0.0000
   3265 C           3.8324    2.9911   33.2873 C.ar    1  UNL1        0.0000
   3266 C           1.0614    3.1120   33.7232 C.ar    1  UNL1        0.0000
   3267 O           4.9527    4.8923   31.5389 O.3     1  UNL1        0.0000
   3268 O          -1.6677   -0.9815   34.0717 O.3     1  UNL1        0.0000
   3269 O           0.1536   -2.3050   34.1475 O.3     1  UNL1        0.0000
   3270 O           2.9896    5.9839   31.3725 O.3     1  UNL1        0.0000
   3271 N           6.1899   10.4004   51.3254 N.pl3  56  UNL56       0.0000
   3272 N           6.6646    9.6210   53.3105 N.pl3  56  UNL56       0.0000
   3273 C           6.8687    9.2053   51.1414 C.2    56  UNL56       0.0000
   3274 C           7.1693    8.7202   52.3880 C.2    56  UNL56       0.0000
   3275 C           7.9658   10.5705   55.1993 C.3    56  UNL56       0.0000
   3276 C           5.6973   11.2850   50.2619 C.3    56  UNL56       0.0000
   3277 C           6.0702   10.6294   52.6453 C.3    56  UNL56       0.0000
   3278 C           6.8793    9.5846   54.7755 C.3    56  UNL56       0.0000
   3279 H           7.1008    8.8093   50.1606 H      56  UNL56       0.0000
   3280 H           7.6875    7.8189   52.6923 H      56  UNL56       0.0000
   3281 H           8.9205   10.3412   54.7091 H      56  UNL56       0.0000
   3282 H           6.5361   11.5690   49.6175 H      56  UNL56       0.0000
   3283 H           7.6879   11.6045   54.9587 H      56  UNL56       0.0000
   3284 H           4.9379   10.7462   49.6835 H      56  UNL56       0.0000
   3285 H           8.1107   10.5022   56.2858 H      56  UNL56       0.0000
   3286 H           7.1656    8.5536   55.0230 H      56  UNL56       0.0000
   3287 H           5.2550   12.1740   50.7221 H      56  UNL56       0.0000
   3288 H           5.5705   11.4784   53.0949 H      56  UNL56       0.0000
   3289 H           5.9115    9.7900   55.2490 H      56  UNL56       0.0000
   3290 TI         -7.2770   -4.9143   50.5633 Ti      1  UNL1        0.0000
   3291 TI          3.5535   -2.0331   41.1985 Ti      1  UNL1        0.0000
   3292 TI         -3.1803   -8.8505   48.7433 Ti      1  UNL1        0.0000
   3293 TI         -1.6691    0.3116   42.9703 Ti      1  UNL1        0.0000
   3294 TI         -2.6677    1.9899   41.0659 Ti      1  UNL1        0.0000
   3295 TI         -1.2921   -9.1048   50.6967 Ti      1  UNL1        0.0000
   3296 TI         -6.3278   -6.6502   48.6718 Ti      1  UNL1        0.0000
   3297 TI          1.5657   -1.7305   43.0459 Ti      1  UNL1        0.0000
   3298 H          -6.7751   -1.0172   50.3438 H      21  UNL21       0.0000
   3299 H           4.3623   -5.9391   41.5192 H       1  UNL1        0.0000
   3300 H         -11.2369   -5.6709   50.1808 H       7  UNL7        0.0000
   3301 H           6.9357   -0.0288   41.3991 H       1  UNL1        0.0000
   3302 H          -0.3165  -13.1394   50.3107 H      18  UNL18       0.0000
   3303 H          -6.7262    1.4000   41.3879 H       1  UNL1        0.0000
   3304 H          -2.1732    0.3531   39.1928 H       1  UNL1        0.0000
   3305 H           1.6780   -2.2758   39.4985 H       1  UNL1        0.0000
   3306 H          -0.7822   -9.7720   45.1856 H       1  UNL1        0.0000
   3307 H          -3.3925    2.1487   46.5892 H       1  UNL1        0.0000
   3308 H         -10.4004   -3.2616   48.3159 H       1  UNL1        0.0000
   3309 H           6.3083   -4.1174   43.5045 H       1  UNL1        0.0000
   3310 H          -8.0993   -4.7090   44.9821 H       1  UNL1        0.0000
   3311 H          -5.7677    3.8178   43.4191 H       1  UNL1        0.0000
   3312 H          -2.2754    5.0928   41.9213 H       1  UNL1        0.0000
   3313 H           4.2045   -7.9580   42.7216 H       1  UNL1        0.0000
   3314 H           0.4235   -0.0082   41.6316 H       1  UNL1        0.0000
   3315 H          -4.2610   -7.0021   50.0369 H       1  UNL1        0.0000
   3316 H           2.9427   -7.1700   49.0863 H      22  UNL22       0.0000
   3317 H           1.4615   -7.6391   49.8337 H      22  UNL22       0.0000
   3318 H           3.5168   -2.7364   47.9874 H       1  UNL1        0.0000
   3319 H           2.9471   -2.3778   46.3689 H       1  UNL1        0.0000
   3320 H           2.4538  -12.1248   48.8963 H       1  UNL1        0.0000
   3321 H           1.1747  -11.0242   49.3537 H       1  UNL1        0.0000
   3322 C           4.1315   -2.7743   44.0620 C.3     1  UNL1        0.0000
   3323 C          -8.2375   -4.6529   47.7162 C.3     1  UNL1        0.0000
   3324 C          -0.5998   -9.8612   47.8186 C.3     1  UNL1        0.0000
   3325 C          -3.6052    2.2821   43.9296 C.3     1  UNL1        0.0000
   3326 C           5.0276   -3.3786   45.0572 C.ar    1  UNL1        0.0000
   3327 C          -9.1694   -4.0279   46.7392 C.ar    1  UNL1        0.0000
   3328 C           0.3404  -10.4756   46.8714 C.ar    1  UNL1        0.0000
   3329 C          -4.4950    2.9289   44.9294 C.ar    1  UNL1        0.0000
   3330 C           4.7788   -3.3037   46.4636 C.ar    1  UNL1        0.0000
   3331 C          -8.9530   -4.1479   45.3512 C.ar    1  UNL1        0.0000
   3332 C           1.4699  -11.2359   47.3244 C.ar    1  UNL1        0.0000
   3333 C          -5.5898    3.7019   44.4845 C.ar    1  UNL1        0.0000
   3334 C          -4.2405    2.7582   46.2843 C.ar    1  UNL1        0.0000
   3335 C           0.0927  -10.3434   45.4875 C.ar    1  UNL1        0.0000
   3336 C           6.1612   -4.0776   44.5815 C.ar    1  UNL1        0.0000
   3337 C         -10.2696   -3.3355   47.2379 C.ar    1  UNL1        0.0000
   3338 C           4.3433   -5.8601   39.3751 C.ar    1  UNL1        0.0000
   3339 C          -2.1264    5.9315   39.4001 C.ar    1  UNL1        0.0000
   3340 C           6.8278   -0.0970   39.2491 C.ar    1  UNL1        0.0000
   3341 C          -6.5306    1.4455   39.2297 C.ar    1  UNL1        0.0000
   3342 C          -0.9224   -2.0315   44.9349 C.3     1  UNL1        0.0000
   3343 C          -5.6785   -9.1259   46.8530 C.3     1  UNL1        0.0000
   3344 C           4.2075   -4.4052   39.3519 C.3     1  UNL1        0.0000
   3345 C          -2.2192    4.4980   39.3626 C.3     1  UNL1        0.0000
   3346 C           5.5299   -0.7138   39.2959 C.3     1  UNL1        0.0000
   3347 C          -5.1283    1.8598   39.2541 C.3     1  UNL1        0.0000
   3348 C           4.3827   -6.5292   40.6047 C.ar    1  UNL1        0.0000
   3349 C          -6.7642   -0.4288   51.2577 C.2    21  UNL21       0.0000
   3350 C           7.4831    0.1778   40.4830 C.ar    1  UNL1        0.0000
   3351 C         -11.7984   -5.8503   51.0962 C.2     7  UNL7        0.0000
   3352 C           2.8874   -6.8947   51.1107 C.2    22  UNL22       0.0000
   3353 C          -7.2278    1.2151   40.4421 C.ar    1  UNL1        0.0000
   3354 C          -0.2748  -13.6665   51.2598 C.2    18  UNL18       0.0000
   3355 C          -2.1126    6.6827   40.6293 C.ar    1  UNL1        0.0000
   3356 N          -2.0576    6.0839   41.8675 N.pl3   1  UNL1        0.0000
   3357 N           2.3084   -7.0775   49.8717 N.pl3  22  UNL22       0.0000
   3358 N           3.6979   -2.6575   46.9949 N.pl3   1  UNL1        0.0000
   3359 N           1.8009  -11.3941   48.6418 N.pl3   1  UNL1        0.0000
   3360 O           2.9552   -2.3692   44.4278 O.3     1  UNL1        0.0000
   3361 O          -7.4685   -5.6038   47.3180 O.3     1  UNL1        0.0000
   3362 O          -0.2183   -9.7367   49.0397 O.3     1  UNL1        0.0000
   3363 O          -3.6711    2.7118   42.7300 O.3     1  UNL1        0.0000
   3364 O          -2.8347    1.3249   44.3161 O.3     1  UNL1        0.0000
   3365 O          -1.7702   -9.4928   47.4131 O.3     1  UNL1        0.0000
   3366 O           4.5434   -2.6936   42.8502 O.3     1  UNL1        0.0000
   3367 O          -8.2795   -4.2167   48.9160 O.3     1  UNL1        0.0000
   3368 O           1.8709   -2.9484   41.8512 O.3     1  UNL1        0.0000
   3369 O          -5.7753   -5.0898   49.4163 O.3     1  UNL1        0.0000
   3370 O           2.8097   -0.6612   42.3012 O.3     1  UNL1        0.0000
   3371 O          -7.5275   -6.8145   49.9090 O.3     1  UNL1        0.0000
   3372 O          -2.9210  -10.0225   50.0037 O.3     1  UNL1        0.0000
   3373 O          -1.1525    1.8729   42.2318 O.3     1  UNL1        0.0000
   3374 O          -1.9670   -7.7610   49.5395 O.3     1  UNL1        0.0000
   3375 O          -2.8588    0.1158   41.7144 O.3     1  UNL1        0.0000
   3376 O          -0.5498  -10.8767   51.3058 O.3     1  UNL1        0.0000
   3377 O          -2.3023    3.7966   40.4578 O.3     1  UNL1        0.0000
   3378 O           0.2524   -8.0885   51.3006 O.3     1  UNL1        0.0000
   3379 O          -4.5382    1.9608   40.3977 O.3     1  UNL1        0.0000
   3380 O           4.9906   -1.0140   40.4439 O.3     1  UNL1        0.0000
   3381 O          -9.1638   -4.9744   51.2317 O.3     1  UNL1        0.0000
   3382 O           4.1950   -3.7683   40.4733 O.3     1  UNL1        0.0000
   3383 O          -6.8956   -3.1920   51.3130 O.3     1  UNL1        0.0000
   3384 O           0.0627   -0.5570   42.3523 O.3     1  UNL1        0.0000
   3385 O          -4.6392   -7.5608   49.3333 O.3     1  UNL1        0.0000
   3386 O           2.5168   -1.7821   39.4195 O.3     1  UNL1        0.0000
   3387 O          -2.0508    1.3199   39.2528 O.3     1  UNL1        0.0000
   3388 H          -0.8522   -5.8688   47.5937 H       1  UNL1        0.0000
   3389 H          -4.7514  -11.5567   46.1411 H       1  UNL1        0.0000
   3390 H          -0.0167    3.2130   44.8377 H       1  UNL1        0.0000
   3391 H           0.2679   -4.1113   46.1881 H       1  UNL1        0.0000
   3392 H          -4.6480   -3.9209   46.9903 H       1  UNL1        0.0000
   3393 H          -8.2025   -8.9970   45.9068 H       1  UNL1        0.0000
   3394 H          -3.3016   -5.7671   47.9562 H       1  UNL1        0.0000
   3395 H          -3.5213   -2.1539   45.6116 H       1  UNL1        0.0000
   3396 H           1.0656    1.0170   44.4461 H       1  UNL1        0.0000
   3397 H         -12.5548    1.2097   44.9825 H       1  UNL1        0.0000
   3398 C          -1.5629   -3.0314   45.8248 C.ar    1  UNL1        0.0000
   3399 C          -2.8119   -4.9957   47.3630 C.ar    1  UNL1        0.0000
   3400 C           1.6336    1.8219   44.9135 C.ar    1  UNL1        0.0000
   3401 C          -6.4053  -10.1734   46.0905 C.ar    1  UNL1        0.0000
   3402 C          -2.9505   -2.9680   46.0534 C.ar    1  UNL1        0.0000
   3403 C          -1.4282   -5.0544   47.1563 C.ar    1  UNL1        0.0000
   3404 C           1.0196    3.0606   45.1357 C.ar    1  UNL1        0.0000
   3405 C          -5.7875  -11.4131   45.8415 C.ar    1  UNL1        0.0000
   3406 C           2.9713    1.6132   45.2688 C.ar    1  UNL1        0.0000
   3407 C          -7.7431   -9.9630   45.7079 C.ar    1  UNL1        0.0000
   3408 C          -0.8023   -4.0754   46.3819 C.ar    1  UNL1        0.0000
   3409 C          -3.5732   -3.9545   46.8178 C.ar    1  UNL1        0.0000
   3410 O           0.3180   -2.1741   44.6335 O.3     1  UNL1        0.0000
   3411 O          -6.3024   -8.0480   47.1663 O.3     1  UNL1        0.0000
   3412 O          -4.4810   -9.3714   47.2421 O.3     1  UNL1        0.0000
   3413 O          -1.6451   -1.0825   44.4671 O.3     1  UNL1        0.0000
   3414 N           1.5553    3.3340   64.4200 N.pl3  57  UNL57       0.0000
   3415 N           2.0300    2.5545   66.4051 N.pl3  57  UNL57       0.0000
   3416 C           2.2341    2.1389   64.2360 C.2    57  UNL57       0.0000
   3417 C           2.5347    1.6538   65.4826 C.2    57  UNL57       0.0000
   3418 C           3.3311    3.5041   68.2939 C.3    57  UNL57       0.0000
   3419 C           1.0626    4.2186   63.3565 C.3    57  UNL57       0.0000
   3420 C           1.4356    3.5629   65.7399 C.3    57  UNL57       0.0000
   3421 C           2.2447    2.5182   67.8701 C.3    57  UNL57       0.0000
   3422 H           2.4661    1.7428   63.2552 H      57  UNL57       0.0000
   3423 H           3.0528    0.7525   65.7869 H      57  UNL57       0.0000
   3424 H           4.2859    3.2748   67.8037 H      57  UNL57       0.0000
   3425 H           1.9014    4.5026   62.7121 H      57  UNL57       0.0000
   3426 H           3.0533    4.5381   68.0534 H      57  UNL57       0.0000
   3427 H           0.3032    3.6798   62.7781 H      57  UNL57       0.0000
   3428 H           3.4761    3.4357   69.3804 H      57  UNL57       0.0000
   3429 H           2.5310    1.4872   68.1176 H      57  UNL57       0.0000
   3430 H           0.6203    5.1076   63.8167 H      57  UNL57       0.0000
   3431 H           0.9359    4.4119   66.1895 H      57  UNL57       0.0000
   3432 H           1.2769    2.7235   68.3436 H      57  UNL57       0.0000
   3433 TI          0.1099   30.8975   11.2229 Ti      1  UNL1        0.0000
   3434 TI         10.9404   33.7787    1.8581 Ti      1  UNL1        0.0000
   3435 TI          4.2066   26.9613    9.4029 Ti      1  UNL1        0.0000
   3436 TI          5.7178   36.1235    3.6299 Ti      1  UNL1        0.0000
   3437 TI          4.7192   37.8018    1.7255 Ti      1  UNL1        0.0000
   3438 TI          6.0948   26.7070   11.3563 Ti      1  UNL1        0.0000
   3439 TI          1.0591   29.1616    9.3315 Ti      1  UNL1        0.0000
   3440 TI          8.9526   34.0813    3.7056 Ti      1  UNL1        0.0000
   3441 H           0.6118   34.7946   11.0035 H       1  UNL1        0.0000
   3442 H          11.7492   29.8727    2.1788 H       1  UNL1        0.0000
   3443 H          -3.8500   30.1409   10.8405 H       1  UNL1        0.0000
   3444 H          14.3226   35.7830    2.0588 H       1  UNL1        0.0000
   3445 H           7.0704   22.6724   10.9704 H       1  UNL1        0.0000
   3446 H           0.6607   37.2119    2.0476 H       1  UNL1        0.0000
   3447 H           5.2137   36.1650   -0.1476 H       1  UNL1        0.0000
   3448 H           9.0649   33.5360    0.1582 H       1  UNL1        0.0000
   3449 H           6.6047   26.0399    5.8452 H       1  UNL1        0.0000
   3450 H           3.9944   37.9605    7.2489 H       1  UNL1        0.0000
   3451 H          -3.0135   32.5503    8.9755 H       1  UNL1        0.0000
   3452 H          13.6952   31.6944    4.1641 H       1  UNL1        0.0000
   3453 H          -0.7124   31.1028    5.6417 H       1  UNL1        0.0000
   3454 H           1.6192   39.6296    4.0788 H       1  UNL1        0.0000
   3455 H           5.1115   40.9046    2.5810 H       1  UNL1        0.0000
   3456 H          11.5914   27.8538    3.3813 H       1  UNL1        0.0000
   3457 H           7.8104   35.8036    2.2913 H       1  UNL1        0.0000
   3458 H           3.1259   28.8097   10.6966 H       1  UNL1        0.0000
   3459 H          10.3296   28.6418    9.7460 H       1  UNL1        0.0000
   3460 H           8.8484   28.1728   10.4933 H       1  UNL1        0.0000
   3461 H          10.9037   33.0755    8.6471 H       1  UNL1        0.0000
   3462 H          10.3340   33.4340    7.0285 H       1  UNL1        0.0000
   3463 H           9.8408   23.6870    9.5559 H       1  UNL1        0.0000
   3464 H           8.5616   24.7876   10.0133 H       1  UNL1        0.0000
   3465 C          11.5185   33.0375    4.7216 C.3     1  UNL1        0.0000
   3466 C          -0.8506   31.1589    8.3759 C.3     1  UNL1        0.0000
   3467 C           6.7871   25.9506    8.4782 C.3     1  UNL1        0.0000
   3468 C           3.7817   38.0940    4.5893 C.3     1  UNL1        0.0000
   3469 C          12.4145   32.4332    5.7168 C.ar    1  UNL1        0.0000
   3470 C          -1.7825   31.7839    7.3989 C.ar    1  UNL1        0.0000
   3471 C           7.7273   25.3363    7.5310 C.ar    1  UNL1        0.0000
   3472 C           2.8919   38.7408    5.5891 C.ar    1  UNL1        0.0000
   3473 C          12.1657   32.5081    7.1233 C.ar    1  UNL1        0.0000
   3474 C          -1.5661   31.6639    6.0108 C.ar    1  UNL1        0.0000
   3475 C           8.8568   24.5760    7.9841 C.ar    1  UNL1        0.0000
   3476 C           1.7972   39.5137    5.1441 C.ar    1  UNL1        0.0000
   3477 C           3.1464   38.5700    6.9440 C.ar    1  UNL1        0.0000
   3478 C           7.4796   25.4684    6.1471 C.ar    1  UNL1        0.0000
   3479 C          13.5481   31.7342    5.2411 C.ar    1  UNL1        0.0000
   3480 C          -2.8827   32.4763    7.8975 C.ar    1  UNL1        0.0000
   3481 C          11.7302   29.9517    0.0347 C.2     1  UNL1        0.0000
   3482 C           5.2605   41.7433    0.0597 C.2     1  UNL1        0.0000
   3483 C          14.2147   35.7149   -0.0913 C.2     1  UNL1        0.0000
   3484 C           0.8563   37.2573   -0.1107 C.2     1  UNL1        0.0000
   3485 C           6.4645   33.7803    5.5945 C.3     1  UNL1        0.0000
   3486 C           1.7084   26.6859    7.5126 C.3     1  UNL1        0.0000
   3487 C          11.5944   31.4066    0.0115 C.2     1  UNL1        0.0000
   3488 C           5.1677   40.3098    0.0222 C.2     1  UNL1        0.0000
   3489 C          12.9168   35.0980   -0.0444 C.2     1  UNL1        0.0000
   3490 C           2.2586   37.6716   -0.0862 C.2     1  UNL1        0.0000
   3491 C          11.7696   29.2826    1.2644 C.2     1  UNL1        0.0000
   3492 C           0.6227   35.3830   11.9174 C.ar    1  UNL1        0.0000
   3493 C          14.8700   35.9897    1.1427 C.2     1  UNL1        0.0000
   3494 C          -4.4114   29.9615   11.7558 C.ar    1  UNL1        0.0000
   3495 C          10.2743   28.9172   11.7703 C.ar    1  UNL1        0.0000
   3496 C           0.1591   37.0269    1.1018 C.2     1  UNL1        0.0000
   3497 C           7.1121   22.1453   11.9194 C.ar    1  UNL1        0.0000
   3498 C           5.2743   42.4945    1.2890 C.2     1  UNL1        0.0000
   3499 N           5.3293   41.8957    2.5272 N.pl3   1  UNL1        0.0000
   3500 N           9.6953   28.7343   10.5314 N.pl3   1  UNL1        0.0000
   3501 N          11.0848   33.1543    7.6546 N.pl3   1  UNL1        0.0000
   3502 N           9.1878   24.4177    9.3015 N.pl3   1  UNL1        0.0000
   3503 O          10.3421   33.4426    5.0874 O.3     1  UNL1        0.0000
   3504 O          -0.0816   30.2080    7.9776 O.3     1  UNL1        0.0000
   3505 O           7.1686   26.0751    9.6993 O.3     1  UNL1        0.0000
   3506 O           3.7158   38.5236    3.3897 O.3     1  UNL1        0.0000
   3507 O           4.5522   37.1367    4.9757 O.3     1  UNL1        0.0000
   3508 O           5.6167   26.3191    8.0727 O.3     1  UNL1        0.0000
   3509 O          11.9303   33.1182    3.5099 O.3     1  UNL1        0.0000
   3510 O          -0.8926   31.5952    9.5756 O.3     1  UNL1        0.0000
   3511 O           9.2578   32.8634    2.5109 O.3     1  UNL1        0.0000
   3512 O           1.6116   30.7220   10.0760 O.3     1  UNL1        0.0000
   3513 O          10.1966   35.1507    2.9609 O.3     1  UNL1        0.0000
   3514 O          -0.1406   28.9973   10.5686 O.3     1  UNL1        0.0000
   3515 O           4.4659   25.7894   10.6634 O.3     1  UNL1        0.0000
   3516 O           6.2344   37.6848    2.8914 O.3     1  UNL1        0.0000
   3517 O           5.4199   28.0508   10.1992 O.3     1  UNL1        0.0000
   3518 O           4.5281   35.9277    2.3740 O.3     1  UNL1        0.0000
   3519 O           6.8372   24.9351   11.9654 O.3     1  UNL1        0.0000
   3520 O           5.0846   39.6084    1.1174 O.2     1  UNL1        0.0000
   3521 O           7.6393   27.7233   11.9603 O.3     1  UNL1        0.0000
   3522 O           2.8487   37.7727    1.0574 O.2     1  UNL1        0.0000
   3523 O          12.3775   34.7979    1.1036 O.2     1  UNL1        0.0000
   3524 O          -1.7768   30.8375   11.8914 O.3     1  UNL1        0.0000
   3525 O          11.5819   32.0435    1.1330 O.2     1  UNL1        0.0000
   3526 O           0.4914   32.6198   11.9726 O.3     1  UNL1        0.0000
   3527 O           7.4496   35.2548    3.0120 O.3     1  UNL1        0.0000
   3528 O           2.7477   28.2510    9.9930 O.3     1  UNL1        0.0000
   3529 O           9.9037   34.0297    0.0792 O.3     1  UNL1        0.0000
   3530 O           5.3361   37.1318   -0.0876 O.3     1  UNL1        0.0000
   3531 H           6.5347   29.9430    8.2533 H       1  UNL1        0.0000
   3532 H           2.6355   24.2552    6.8007 H       1  UNL1        0.0000
   3533 H           7.3702   39.0248    5.4974 H       1  UNL1        0.0000
   3534 H           7.6548   31.7005    6.8477 H       1  UNL1        0.0000
   3535 H           2.7389   31.8909    7.6500 H       1  UNL1        0.0000
   3536 H          -0.8156   26.8148    6.5664 H       1  UNL1        0.0000
   3537 H           4.0853   30.0448    8.6158 H       1  UNL1        0.0000
   3538 H           3.8656   33.6579    6.2713 H       1  UNL1        0.0000
   3539 H           8.4525   36.8289    5.1058 H       1  UNL1        0.0000
   3540 H          -5.1679   37.0215    5.6421 H       1  UNL1        0.0000
   3541 C           5.8240   32.7804    6.4845 C.ar    1  UNL1        0.0000
   3542 C           4.5750   30.8161    8.0226 C.ar    1  UNL1        0.0000
   3543 C           9.0205   37.6337    5.5732 C.ar    1  UNL1        0.0000
   3544 C           0.9816   25.6384    6.7502 C.ar    1  UNL1        0.0000
   3545 C           4.4364   32.8438    6.7130 C.ar    1  UNL1        0.0000
   3546 C           5.9587   30.7574    7.8160 C.ar    1  UNL1        0.0000
   3547 C           8.4065   38.8725    5.7953 C.ar    1  UNL1        0.0000
   3548 C           1.5994   24.3988    6.5012 C.ar    1  UNL1        0.0000
   3549 C          10.3583   37.4250    5.9285 C.ar    1  UNL1        0.0000
   3550 C          -0.3561   25.8488    6.3675 C.ar    1  UNL1        0.0000
   3551 C           6.5847   31.7364    7.0416 C.ar    1  UNL1        0.0000
   3552 C           3.8137   31.8574    7.4774 C.ar    1  UNL1        0.0000
   3553 O           7.7049   33.6377    5.2931 O.3     1  UNL1        0.0000
   3554 O           1.0845   27.7638    7.8259 O.3     1  UNL1        0.0000
   3555 O           2.9059   26.4404    7.9017 O.3     1  UNL1        0.0000
   3556 O           5.7418   34.7293    5.1267 O.3     1  UNL1        0.0000
   3557 N           8.9422   39.1458   25.0797 N.pl3  58  UNL58       0.0000
   3558 N           9.4169   38.3664   27.0647 N.pl3  58  UNL58       0.0000
   3559 C           9.6210   37.9507   24.8957 C.2    58  UNL58       0.0000
   3560 C           9.9216   37.4656   26.1423 C.2    58  UNL58       0.0000
   3561 C          10.7180   39.3159   28.9536 C.3    58  UNL58       0.0000
   3562 C           8.4495   40.0304   24.0162 C.3    58  UNL58       0.0000
   3563 C           8.8225   39.3748   26.3995 C.3    58  UNL58       0.0000
   3564 C           9.6316   38.3300   28.5298 C.3    58  UNL58       0.0000
   3565 H           9.8530   37.5547   23.9148 H      58  UNL58       0.0000
   3566 H          10.4398   36.5643   26.4465 H      58  UNL58       0.0000
   3567 H          11.6728   39.0866   28.4633 H      58  UNL58       0.0000
   3568 H           9.2883   40.3144   23.3717 H      58  UNL58       0.0000
   3569 H          10.4402   40.3499   28.7130 H      58  UNL58       0.0000
   3570 H           7.6901   39.4916   23.4377 H      58  UNL58       0.0000
   3571 H          10.8630   39.2475   30.0401 H      58  UNL58       0.0000
   3572 H           9.9179   37.2990   28.7772 H      58  UNL58       0.0000
   3573 H           8.0072   40.9194   24.4764 H      58  UNL58       0.0000
   3574 H           8.3228   40.2238   26.8491 H      58  UNL58       0.0000
   3575 H           8.6638   38.5354   29.0032 H      58  UNL58       0.0000
   3576 TI         -4.5247   23.8311   24.3175 Ti      1  UNL1        0.0000
   3577 TI          6.3058   26.7123   14.9527 Ti      1  UNL1        0.0000
   3578 TI         -0.4280   19.8949   22.4976 Ti      1  UNL1        0.0000
   3579 TI          1.0832   29.0570   16.7245 Ti      1  UNL1        0.0000
   3580 TI          0.0846   30.7353   14.8201 Ti      1  UNL1        0.0000
   3581 TI          1.4602   19.6405   24.4509 Ti      1  UNL1        0.0000
   3582 TI         -3.5755   22.0952   22.4261 Ti      1  UNL1        0.0000
   3583 TI          4.3180   27.0148   16.8002 Ti      1  UNL1        0.0000
   3584 H          -4.0228   27.7282   24.0981 H       1  UNL1        0.0000
   3585 H           7.1146   22.8062   15.2734 H       1  UNL1        0.0000
   3586 H          -8.4846   23.0745   23.9351 H       1  UNL1        0.0000
   3587 H           9.6879   28.7166   15.1534 H       1  UNL1        0.0000
   3588 H           2.4358   15.6060   24.0650 H       1  UNL1        0.0000
   3589 H          -3.9739   30.1454   15.1422 H       1  UNL1        0.0000
   3590 H           0.5791   29.0985   12.9471 H       1  UNL1        0.0000
   3591 H           4.4302   26.4696   13.2528 H       1  UNL1        0.0000
   3592 H           1.9701   18.9734   18.9398 H       1  UNL1        0.0000
   3593 H          -0.6403   30.8940   20.3435 H       1  UNL1        0.0000
   3594 H          -7.6481   25.4838   22.0702 H       1  UNL1        0.0000
   3595 H           9.0605   24.6280   17.2587 H       1  UNL1        0.0000
   3596 H          -5.3470   24.0364   18.7363 H       1  UNL1        0.0000
   3597 H          -3.0155   32.5632   17.1734 H       1  UNL1        0.0000
   3598 H           0.4768   33.8382   15.6756 H       1  UNL1        0.0000
   3599 H           6.9567   20.7874   16.4759 H       1  UNL1        0.0000
   3600 H           3.1758   28.7371   15.3859 H       1  UNL1        0.0000
   3601 H          -1.5087   21.7433   23.7912 H       1  UNL1        0.0000
   3602 H           5.6949   21.5754   22.8406 H       1  UNL1        0.0000
   3603 H           4.2138   21.1063   23.5879 H       1  UNL1        0.0000
   3604 H           6.2690   26.0090   21.7417 H       1  UNL1        0.0000
   3605 H           5.6993   26.3676   20.1231 H       1  UNL1        0.0000
   3606 H           5.2061   16.6206   22.6506 H       1  UNL1        0.0000
   3607 H           3.9270   17.7211   23.1080 H       1  UNL1        0.0000
   3608 C           6.8838   25.9711   17.8163 C.3     1  UNL1        0.0000
   3609 C          -5.4853   24.0925   21.4705 C.3     1  UNL1        0.0000
   3610 C           2.1525   18.8842   21.5728 C.3     1  UNL1        0.0000
   3611 C          -0.8529   31.0275   17.6839 C.3     1  UNL1        0.0000
   3612 C           7.7798   25.3667   18.8114 C.ar    1  UNL1        0.0000
   3613 C          -6.4172   24.7175   20.4935 C.ar    1  UNL1        0.0000
   3614 C           3.0927   18.2698   20.6256 C.ar    1  UNL1        0.0000
   3615 C          -1.7428   31.6743   18.6837 C.ar    1  UNL1        0.0000
   3616 C           7.5311   25.4417   20.2179 C.ar    1  UNL1        0.0000
   3617 C          -6.2008   24.5975   19.1054 C.ar    1  UNL1        0.0000
   3618 C           4.2221   17.5095   21.0787 C.ar    1  UNL1        0.0000
   3619 C          -2.8375   32.4473   18.2388 C.ar    1  UNL1        0.0000
   3620 C          -1.4883   31.5036   20.0386 C.ar    1  UNL1        0.0000
   3621 C           2.8450   18.4020   19.2417 C.ar    1  UNL1        0.0000
   3622 C           8.9135   24.6678   18.3357 C.ar    1  UNL1        0.0000
   3623 C          -7.5173   25.4099   20.9921 C.ar    1  UNL1        0.0000
   3624 C           7.0956   22.8853   13.1293 C.ar    1  UNL1        0.0000
   3625 C           0.6258   34.6769   13.1543 C.ar    1  UNL1        0.0000
   3626 C           9.5800   28.6484   13.0033 C.ar    1  UNL1        0.0000
   3627 C          -3.7783   30.1909   12.9839 C.ar    1  UNL1        0.0000
   3628 C           1.8299   26.7138   18.6891 C.3     1  UNL1        0.0000
   3629 C          -2.9262   19.6195   20.6073 C.3     1  UNL1        0.0000
   3630 C           6.9597   24.3402   13.1061 C.3     1  UNL1        0.0000
   3631 C           0.5331   33.2434   13.1168 C.3     1  UNL1        0.0000
   3632 C           8.2822   28.0316   13.0502 C.3     1  UNL1        0.0000
   3633 C          -2.3760   30.6052   13.0084 C.3     1  UNL1        0.0000
   3634 C           7.1349   22.2162   14.3590 C.ar    1  UNL1        0.0000
   3635 C          -4.0119   28.3166   25.0120 C.ar    1  UNL1        0.0000
   3636 C          10.2353   28.9232   14.2373 C.ar    1  UNL1        0.0000
   3637 C          -9.0461   22.8951   24.8504 C.ar    1  UNL1        0.0000
   3638 C           5.6397   21.8507   24.8649 C.ar    1  UNL1        0.0000
   3639 C          -4.4755   29.9604   14.1964 C.ar    1  UNL1        0.0000
   3640 C           2.4774   15.0788   25.0141 C.ar    1  UNL1        0.0000
   3641 C           0.6396   35.4281   14.3836 C.ar    1  UNL1        0.0000
   3642 N           0.6947   34.8293   15.6218 N.pl3   1  UNL1        0.0000
   3643 N           5.0606   21.6679   23.6260 N.pl3   1  UNL1        0.0000
   3644 N           6.4502   26.0879   20.7492 N.pl3   1  UNL1        0.0000
   3645 N           4.5531   17.3513   22.3961 N.pl3   1  UNL1        0.0000
   3646 O           5.7075   26.3762   18.1821 O.3     1  UNL1        0.0000
   3647 O          -4.7163   23.1416   21.0722 O.3     1  UNL1        0.0000
   3648 O           2.5339   19.0087   22.7939 O.3     1  UNL1        0.0000
   3649 O          -0.9188   31.4572   16.4843 O.3     1  UNL1        0.0000
   3650 O          -0.0825   30.0703   18.0703 O.3     1  UNL1        0.0000
   3651 O           0.9821   19.2526   21.1673 O.3     1  UNL1        0.0000
   3652 O           7.2957   26.0518   16.6045 O.3     1  UNL1        0.0000
   3653 O          -5.5273   24.5287   22.6702 O.3     1  UNL1        0.0000
   3654 O           4.6232   25.7969   15.6055 O.3     1  UNL1        0.0000
   3655 O          -3.0230   23.6555   23.1706 O.3     1  UNL1        0.0000
   3656 O           5.5620   28.0842   16.0555 O.3     1  UNL1        0.0000
   3657 O          -4.7752   21.9309   23.6632 O.3     1  UNL1        0.0000
   3658 O          -0.1687   18.7229   23.7580 O.3     1  UNL1        0.0000
   3659 O           1.5997   30.6183   15.9861 O.3     1  UNL1        0.0000
   3660 O           0.7852   20.9844   23.2938 O.3     1  UNL1        0.0000
   3661 O          -0.1065   28.8612   15.4686 O.3     1  UNL1        0.0000
   3662 O           2.2025   17.8687   25.0600 O.3     1  UNL1        0.0000
   3663 O           0.4500   32.5419   14.2120 O.3     1  UNL1        0.0000
   3664 O           3.0047   20.6569   25.0549 O.3     1  UNL1        0.0000
   3665 O          -1.7859   30.7062   14.1520 O.3     1  UNL1        0.0000
   3666 O           7.7428   27.7314   14.1982 O.3     1  UNL1        0.0000
   3667 O          -6.4115   23.7710   24.9860 O.3     1  UNL1        0.0000
   3668 O           6.9473   24.9771   14.2276 O.3     1  UNL1        0.0000
   3669 O          -4.1433   25.5534   25.0672 O.3     1  UNL1        0.0000
   3670 O           2.8150   28.1884   16.1066 O.3     1  UNL1        0.0000
   3671 O          -1.8870   21.1846   23.0876 O.3     1  UNL1        0.0000
   3672 O           5.2691   26.9633   13.1738 O.3     1  UNL1        0.0000
   3673 O           0.7014   30.0653   13.0070 O.3     1  UNL1        0.0000
   3674 H           1.9000   22.8765   21.3479 H       1  UNL1        0.0000
   3675 H          -1.9991   17.1887   19.8953 H       1  UNL1        0.0000
   3676 H           2.7356   31.9584   18.5920 H       1  UNL1        0.0000
   3677 H           3.0202   24.6341   19.9423 H       1  UNL1        0.0000
   3678 H          -1.8957   24.8245   20.7446 H       1  UNL1        0.0000
   3679 H          -5.4502   19.7484   19.6611 H       1  UNL1        0.0000
   3680 H          -0.5493   22.9783   21.7105 H       1  UNL1        0.0000
   3681 H          -0.7690   26.5914   19.3659 H       1  UNL1        0.0000
   3682 H           3.8179   29.7624   18.2004 H       1  UNL1        0.0000
   3683 H          -9.8025   29.9551   18.7367 H       1  UNL1        0.0000
   3684 C           1.1893   25.7140   19.5791 C.ar    1  UNL1        0.0000
   3685 C          -0.0597   23.7496   21.1173 C.ar    1  UNL1        0.0000
   3686 C           4.3858   30.5673   18.6678 C.ar    1  UNL1        0.0000
   3687 C          -3.6530   18.5720   19.8448 C.ar    1  UNL1        0.0000
   3688 C          -0.1983   25.7774   19.8076 C.ar    1  UNL1        0.0000
   3689 C           1.3241   23.6909   20.9106 C.ar    1  UNL1        0.0000
   3690 C           3.7719   31.8060   18.8899 C.ar    1  UNL1        0.0000
   3691 C          -3.0353   17.3323   19.5958 C.ar    1  UNL1        0.0000
   3692 C           5.7236   30.3585   19.0231 C.ar    1  UNL1        0.0000
   3693 C          -4.9908   18.7823   19.4621 C.ar    1  UNL1        0.0000
   3694 C           1.9500   24.6700   20.1362 C.ar    1  UNL1        0.0000
   3695 C          -0.8210   24.7909   20.5720 C.ar    1  UNL1        0.0000
   3696 O           3.0703   26.5713   18.3878 O.3     1  UNL1        0.0000
   3697 O          -3.5501   20.6974   20.9206 O.3     1  UNL1        0.0000
   3698 O          -1.7288   19.3740   20.9963 O.3     1  UNL1        0.0000
   3699 O           1.1072   27.6629   18.2213 O.3     1  UNL1        0.0000
   3700 N           4.3075   32.0794   38.1743 N.pl3  59  UNL59       0.0000
   3701 N           4.7822   31.2999   40.1593 N.pl3  59  UNL59       0.0000
   3702 C           4.9863   30.8842   37.9903 C.2    59  UNL59       0.0000
   3703 C           5.2869   30.3992   39.2369 C.2    59  UNL59       0.0000
   3704 C           6.0834   32.2494   42.0482 C.3    59  UNL59       0.0000
   3705 C           3.8149   32.9640   37.1108 C.3    59  UNL59       0.0000
   3706 C           4.1879   32.3083   39.4941 C.3    59  UNL59       0.0000
   3707 C           4.9969   31.2636   41.6244 C.3    59  UNL59       0.0000
   3708 H           5.2184   30.4882   37.0095 H      59  UNL59       0.0000
   3709 H           5.8051   29.4979   39.5411 H      59  UNL59       0.0000
   3710 H           7.0381   32.0201   41.5579 H      59  UNL59       0.0000
   3711 H           4.6537   33.2480   36.4663 H      59  UNL59       0.0000
   3712 H           5.8056   33.2834   41.8076 H      59  UNL59       0.0000
   3713 H           3.0555   32.4252   36.5323 H      59  UNL59       0.0000
   3714 H           6.2283   32.1811   43.1347 H      59  UNL59       0.0000
   3715 H           5.2832   30.2325   41.8718 H      59  UNL59       0.0000
   3716 H           3.3726   33.8530   37.5710 H      59  UNL59       0.0000
   3717 H           3.6881   33.1573   39.9437 H      59  UNL59       0.0000
   3718 H           4.0291   31.4689   42.0979 H      59  UNL59       0.0000
   3719 TI         -9.1594   16.7646   37.4121 Ti      1  UNL1        0.0000
   3720 TI          1.6711   19.6459   28.0473 Ti      1  UNL1        0.0000
   3721 TI         -5.0627   12.8284   35.5922 Ti      1  UNL1        0.0000
   3722 TI         -3.5515   21.9906   29.8191 Ti      1  UNL1        0.0000
   3723 TI         -4.5500   23.6689   27.9147 Ti      1  UNL1        0.0000
   3724 TI         -3.1745   12.5741   37.5455 Ti      1  UNL1        0.0000
   3725 TI         -8.2102   15.0288   35.5207 Ti      1  UNL1        0.0000
   3726 TI         -0.3167   19.9484   29.8948 Ti      1  UNL1        0.0000
   3727 H          -8.6575   20.6617   37.1927 H       1  UNL1        0.0000
   3728 H           2.4799   15.7398   28.3680 H       1  UNL1        0.0000
   3729 H         -13.1193   16.0080   37.0297 H       1  UNL1        0.0000
   3730 H           5.0533   21.6502   28.2480 H       1  UNL1        0.0000
   3731 H          -2.1989    8.5396   37.1596 H       1  UNL1        0.0000
   3732 H          -8.6086   23.0790   28.2368 H       1  UNL1        0.0000
   3733 H          -4.0556   22.0321   26.0417 H       1  UNL1        0.0000
   3734 H          -0.2044   19.4032   26.3474 H       1  UNL1        0.0000
   3735 H          -2.6646   11.9070   32.0344 H       1  UNL1        0.0000
   3736 H          -5.2749   23.8276   33.4381 H       1  UNL1        0.0000
   3737 H         -12.2828   18.4174   35.1648 H       1  UNL1        0.0000
   3738 H           4.4259   17.5615   30.3533 H       1  UNL1        0.0000
   3739 H          -9.9817   16.9699   31.8309 H       1  UNL1        0.0000
   3740 H          -7.6501   25.4967   30.2680 H       1  UNL1        0.0000
   3741 H          -4.1578   26.7717   28.7702 H       1  UNL1        0.0000
   3742 H           2.3221   13.7210   29.5705 H       1  UNL1        0.0000
   3743 H          -1.4589   21.6707   28.4805 H       1  UNL1        0.0000
   3744 H          -6.1434   14.6768   36.8858 H       1  UNL1        0.0000
   3745 H           1.0603   14.5090   35.9352 H       1  UNL1        0.0000
   3746 H          -0.4208   14.0399   36.6825 H       1  UNL1        0.0000
   3747 H           1.6344   18.9426   34.8363 H       1  UNL1        0.0000
   3748 H           1.0647   19.3012   33.2178 H       1  UNL1        0.0000
   3749 H           0.5715    9.5541   35.7452 H       1  UNL1        0.0000
   3750 H          -0.7077   10.6547   36.2026 H       1  UNL1        0.0000
   3751 C           2.2492   18.9046   30.9109 C.3     1  UNL1        0.0000
   3752 C         -10.1199   17.0260   34.5651 C.3     1  UNL1        0.0000
   3753 C          -2.4822   11.8177   34.6674 C.3     1  UNL1        0.0000
   3754 C          -5.4876   23.9611   30.7785 C.3     1  UNL1        0.0000
   3755 C           3.1452   18.3003   31.9061 C.ar    1  UNL1        0.0000
   3756 C         -11.0518   17.6510   33.5881 C.ar    1  UNL1        0.0000
   3757 C          -1.5420   11.2034   33.7203 C.ar    1  UNL1        0.0000
   3758 C          -6.3774   24.6079   31.7783 C.ar    1  UNL1        0.0000
   3759 C           2.8964   18.3752   33.3125 C.ar    1  UNL1        0.0000
   3760 C         -10.8354   17.5311   32.2000 C.ar    1  UNL1        0.0000
   3761 C          -0.4125   10.4431   34.1733 C.ar    1  UNL1        0.0000
   3762 C          -7.4721   25.3808   31.3334 C.ar    1  UNL1        0.0000
   3763 C          -6.1229   24.4371   33.1332 C.ar    1  UNL1        0.0000
   3764 C          -1.7897   11.3355   32.3363 C.ar    1  UNL1        0.0000
   3765 C           4.2789   17.6013   31.4304 C.ar    1  UNL1        0.0000
   3766 C         -12.1520   18.3435   34.0868 C.ar    1  UNL1        0.0000
   3767 C           2.4609   15.8189   26.2239 C.ar    1  UNL1        0.0000
   3768 C          -4.0088   27.6105   26.2489 C.ar    1  UNL1        0.0000
   3769 C           4.9454   21.5820   26.0979 C.ar    1  UNL1        0.0000
   3770 C          -8.4130   23.1244   26.0785 C.ar    1  UNL1        0.0000
   3771 C          -2.8048   19.6474   31.7837 C.3     1  UNL1        0.0000
   3772 C          -7.5608   12.5530   33.7019 C.3     1  UNL1        0.0000
   3773 C           2.3251   17.2737   26.2007 C.3     1  UNL1        0.0000
   3774 C          -4.1016   26.1769   26.2114 C.3     1  UNL1        0.0000
   3775 C           3.6475   20.9652   26.1448 C.3     1  UNL1        0.0000
   3776 C          -7.0107   23.5388   26.1030 C.3     1  UNL1        0.0000
   3777 C           2.5003   15.1498   27.4536 C.ar    1  UNL1        0.0000
   3778 C          -8.6465   21.2501   38.1066 C.ar    1  UNL1        0.0000
   3779 C           5.6007   21.8568   27.3319 C.ar    1  UNL1        0.0000
   3780 C         -13.6807   15.8286   37.9451 C.ar    1  UNL1        0.0000
   3781 C           1.0050   14.7843   37.9595 C.ar    1  UNL1        0.0000
   3782 C          -9.1102   22.8940   27.2910 C.ar    1  UNL1        0.0000
   3783 C          -2.1572    8.0124   38.1087 C.ar    1  UNL1        0.0000
   3784 C          -3.9950   28.3617   27.4782 C.ar    1  UNL1        0.0000
   3785 N          -3.9400   27.7628   28.7164 N.pl3   1  UNL1        0.0000
   3786 N           0.4260   14.6014   36.7206 N.pl3   1  UNL1        0.0000
   3787 N           1.8155   19.0215   33.8438 N.pl3   1  UNL1        0.0000
   3788 N          -0.0815   10.2848   35.4907 N.pl3   1  UNL1        0.0000
   3789 O           1.0728   19.3097   31.2767 O.3     1  UNL1        0.0000
   3790 O          -9.3509   16.0752   34.1668 O.3     1  UNL1        0.0000
   3791 O          -2.1007   11.9422   35.8886 O.3     1  UNL1        0.0000
   3792 O          -5.5535   24.3908   29.5789 O.3     1  UNL1        0.0000
   3793 O          -4.7171   23.0039   31.1650 O.3     1  UNL1        0.0000
   3794 O          -3.6526   12.1862   34.2619 O.3     1  UNL1        0.0000
   3795 O           2.6610   18.9854   29.6991 O.3     1  UNL1        0.0000
   3796 O         -10.1619   17.4623   35.7648 O.3     1  UNL1        0.0000
   3797 O          -0.0115   18.7305   28.7001 O.3     1  UNL1        0.0000
   3798 O          -7.6577   16.5891   36.2652 O.3     1  UNL1        0.0000
   3799 O           0.9273   21.0178   29.1501 O.3     1  UNL1        0.0000
   3800 O          -9.4099   14.8644   36.7579 O.3     1  UNL1        0.0000
   3801 O          -4.8034   11.6565   36.8526 O.3     1  UNL1        0.0000
   3802 O          -3.0349   23.5519   29.0807 O.3     1  UNL1        0.0000
   3803 O          -3.8494   13.9180   36.3884 O.3     1  UNL1        0.0000
   3804 O          -4.7412   21.7948   28.5632 O.3     1  UNL1        0.0000
   3805 O          -2.4321   10.8022   38.1546 O.3     1  UNL1        0.0000
   3806 O          -4.1847   25.4755   27.3066 O.3     1  UNL1        0.0000
   3807 O          -1.6300   13.5904   38.1495 O.3     1  UNL1        0.0000
   3808 O          -6.4206   23.6398   27.2466 O.3     1  UNL1        0.0000
   3809 O           3.1082   20.6650   27.2928 O.3     1  UNL1        0.0000
   3810 O         -11.0461   16.7046   38.0806 O.3     1  UNL1        0.0000
   3811 O           2.3126   17.9107   27.3222 O.3     1  UNL1        0.0000
   3812 O          -8.7779   18.4869   38.1619 O.3     1  UNL1        0.0000
   3813 O          -1.8197   21.1220   29.2012 O.3     1  UNL1        0.0000
   3814 O          -6.5216   14.1181   36.1822 O.3     1  UNL1        0.0000
   3815 O           0.6344   19.8968   26.2684 O.3     1  UNL1        0.0000
   3816 O          -3.9332   22.9989   26.1016 O.3     1  UNL1        0.0000
   3817 H          -2.7346   15.8101   34.4425 H       1  UNL1        0.0000
   3818 H          -6.6338   10.1223   32.9899 H       1  UNL1        0.0000
   3819 H          -1.8991   24.8920   31.6866 H       1  UNL1        0.0000
   3820 H          -1.6145   17.5677   33.0369 H       1  UNL1        0.0000
   3821 H          -6.5304   17.7580   33.8392 H       1  UNL1        0.0000
   3822 H         -10.0849   12.6820   32.7557 H       1  UNL1        0.0000
   3823 H          -5.1840   15.9119   34.8051 H       1  UNL1        0.0000
   3824 H          -5.4036   19.5250   32.4605 H       1  UNL1        0.0000
   3825 H          -0.8168   22.6960   31.2950 H       1  UNL1        0.0000
   3826 H         -14.4372   22.8887   31.8314 H       1  UNL1        0.0000
   3827 C          -3.4453   18.6476   32.6737 C.ar    1  UNL1        0.0000
   3828 C          -4.6943   16.6832   34.2119 C.ar    1  UNL1        0.0000
   3829 C          -0.2488   23.5008   31.7624 C.ar    1  UNL1        0.0000
   3830 C          -8.2877   11.5056   32.9394 C.ar    1  UNL1        0.0000
   3831 C          -4.8329   18.7109   32.9022 C.ar    1  UNL1        0.0000
   3832 C          -3.3106   16.6245   34.0052 C.ar    1  UNL1        0.0000
   3833 C          -0.8628   24.7396   31.9845 C.ar    1  UNL1        0.0000
   3834 C          -7.6699   10.2659   32.6904 C.ar    1  UNL1        0.0000
   3835 C           1.0890   23.2921   32.1177 C.ar    1  UNL1        0.0000
   3836 C          -9.6254   11.7159   32.5568 C.ar    1  UNL1        0.0000
   3837 C          -2.6846   17.6036   33.2308 C.ar    1  UNL1        0.0000
   3838 C          -5.4556   17.7245   33.6667 C.ar    1  UNL1        0.0000
   3839 O          -1.5644   19.5048   31.4824 O.3     1  UNL1        0.0000
   3840 O          -8.1847   13.6310   34.0152 O.3     1  UNL1        0.0000
   3841 O          -6.3634   12.3075   34.0910 O.3     1  UNL1        0.0000
   3842 O          -3.5275   20.5964   31.3160 O.3     1  UNL1        0.0000
   3843 N          -0.3271   25.0129   51.2689 N.pl3  59  UNL59       0.0000
   3844 N           0.1476   24.2335   53.2539 N.pl3  59  UNL59       0.0000
   3845 C           0.3517   23.8178   51.0849 C.2    59  UNL59       0.0000
   3846 C           0.6523   23.3328   52.3315 C.2    59  UNL59       0.0000
   3847 C           1.4488   25.1830   55.1428 C.3    59  UNL59       0.0000
   3848 C          -0.8198   25.8975   50.2054 C.3    59  UNL59       0.0000
   3849 C          -0.4468   25.2419   52.5887 C.3    59  UNL59       0.0000
   3850 C           0.3623   24.1972   54.7190 C.3    59  UNL59       0.0000
   3851 H           0.5837   23.4218   50.1041 H      59  UNL59       0.0000
   3852 H           1.1705   22.4315   52.6357 H      59  UNL59       0.0000
   3853 H           2.4035   24.9537   54.6526 H      59  UNL59       0.0000
   3854 H           0.0190   26.1815   49.5609 H      59  UNL59       0.0000
   3855 H           1.1709   26.2170   54.9022 H      59  UNL59       0.0000
   3856 H          -1.5792   25.3587   49.6269 H      59  UNL59       0.0000
   3857 H           1.5937   25.1147   56.2293 H      59  UNL59       0.0000
   3858 H           0.6486   23.1661   54.9665 H      59  UNL59       0.0000
   3859 H          -1.2621   26.7865   50.6656 H      59  UNL59       0.0000
   3860 H          -0.9465   26.0909   53.0383 H      59  UNL59       0.0000
   3861 H          -0.6055   24.4025   55.1925 H      59  UNL59       0.0000
   3862 TI        -13.7940    9.6982   50.5068 Ti      1  UNL1        0.0000
   3863 TI         -2.9635   12.5794   41.1419 Ti      1  UNL1        0.0000
   3864 TI         -9.6973    5.7620   48.6868 Ti      1  UNL1        0.0000
   3865 TI         -8.1861   14.9241   42.9137 Ti      1  UNL1        0.0000
   3866 TI         -9.1847   16.6025   41.0094 Ti      1  UNL1        0.0000
   3867 TI         -7.8091    5.5077   50.6401 Ti      1  UNL1        0.0000
   3868 TI        -12.8448    7.9623   48.6153 Ti      1  UNL1        0.0000
   3869 TI         -4.9513   12.8820   42.9894 Ti      1  UNL1        0.0000
   3870 H         -13.2921   13.5953   50.2873 H      59  UNL59       0.0000
   3871 H          -2.1547    8.6734   41.4626 H       1  UNL1        0.0000
   3872 H         -17.7539    8.9416   50.1243 H      10  UNL10       0.0000
   3873 H           0.4186   14.5837   41.3426 H       1  UNL1        0.0000
   3874 H          -6.8335    1.4731   50.2542 H      21  UNL21       0.0000
   3875 H         -13.2432   16.0126   41.3314 H       1  UNL1        0.0000
   3876 H          -8.6902   14.9656   39.1363 H       1  UNL1        0.0000
   3877 H          -4.8390   12.3367   39.4420 H       1  UNL1        0.0000
   3878 H          -7.2992    4.8406   45.1290 H       1  UNL1        0.0000
   3879 H          -9.9096   16.7612   46.5327 H       1  UNL1        0.0000
   3880 H         -16.9174   11.3509   48.2594 H       1  UNL1        0.0000
   3881 H          -0.2088   10.4951   43.4479 H       1  UNL1        0.0000
   3882 H         -14.6163    9.9035   44.9255 H       1  UNL1        0.0000
   3883 H         -12.2848   18.4303   43.3626 H       1  UNL1        0.0000
   3884 H          -8.7925   19.7053   41.8648 H       1  UNL1        0.0000
   3885 H          -2.3126    6.6545   42.6651 H       1  UNL1        0.0000
   3886 H          -6.0935   14.6043   41.5751 H       1  UNL1        0.0000
   3887 H         -10.7780    7.6104   49.9804 H       1  UNL1        0.0000
   3888 H          -3.5744    7.4425   49.0298 H      59  UNL59       0.0000
   3889 H          -5.0555    6.9735   49.7771 H      59  UNL59       0.0000
   3890 H          -3.0002   11.8762   47.9309 H       1  UNL1        0.0000
   3891 H          -3.5700   12.2347   46.3124 H       1  UNL1        0.0000
   3892 H          -4.0632    2.4877   48.8398 H       1  UNL1        0.0000
   3893 H          -5.3423    3.5883   49.2972 H       1  UNL1        0.0000
   3894 C          -2.3855   11.8382   44.0055 C.3     1  UNL1        0.0000
   3895 C         -14.7545    9.9596   47.6597 C.3     1  UNL1        0.0000
   3896 C          -7.1168    4.7513   47.7621 C.3     1  UNL1        0.0000
   3897 C         -10.1222   16.8947   43.8731 C.3     1  UNL1        0.0000
   3898 C          -1.4895   11.2339   45.0007 C.ar    1  UNL1        0.0000
   3899 C         -15.6864   10.5846   46.6827 C.ar    1  UNL1        0.0000
   3900 C          -6.1766    4.1370   46.8149 C.ar    1  UNL1        0.0000
   3901 C         -11.0121   17.5415   44.8729 C.ar    1  UNL1        0.0000
   3902 C          -1.7382   11.3088   46.4071 C.ar    1  UNL1        0.0000
   3903 C         -15.4701   10.4646   45.2947 C.ar    1  UNL1        0.0000
   3904 C          -5.0472    3.3767   47.2679 C.ar    1  UNL1        0.0000
   3905 C         -12.1068   18.3144   44.4280 C.ar    1  UNL1        0.0000
   3906 C         -10.7576   17.3707   46.2278 C.ar    1  UNL1        0.0000
   3907 C          -6.4243    4.2691   45.4309 C.ar    1  UNL1        0.0000
   3908 C          -0.3558   10.5349   44.5250 C.ar    1  UNL1        0.0000
   3909 C         -16.7866   11.2770   47.1814 C.ar    1  UNL1        0.0000
   3910 C          -2.1737    8.7524   39.3185 C.ar    1  UNL1        0.0000
   3911 C          -8.6434   20.5440   39.3435 C.ar    1  UNL1        0.0000
   3912 C           0.3107   14.5156   39.1925 C.ar    1  UNL1        0.0000
   3913 C         -13.0476   16.0580   39.1731 C.ar    1  UNL1        0.0000
   3914 C          -7.4394   12.5810   44.8783 C.3     1  UNL1        0.0000
   3915 C         -12.1955    5.4866   46.7965 C.3     1  UNL1        0.0000
   3916 C          -2.3096   10.2073   39.2953 C.3     1  UNL1        0.0000
   3917 C          -8.7362   19.1105   39.3061 C.3     1  UNL1        0.0000
   3918 C          -0.9871   13.8987   39.2394 C.3     1  UNL1        0.0000
   3919 C         -11.6453   16.4723   39.1976 C.3     1  UNL1        0.0000
   3920 C          -2.1344    8.0833   40.5482 C.ar    1  UNL1        0.0000
   3921 C         -13.2812   14.1837   51.2012 C.2    59  UNL59       0.0000
   3922 C           0.9660   14.7904   40.4265 C.ar    1  UNL1        0.0000
   3923 C         -18.3154    8.7622   51.0397 C.2    10  UNL10       0.0000
   3924 C          -3.6296    7.7178   51.0542 C.2    59  UNL59       0.0000
   3925 C         -13.7448   15.8276   40.3856 C.ar    1  UNL1        0.0000
   3926 C          -6.7919    0.9460   51.2033 C.2    21  UNL21       0.0000
   3927 C          -8.6297   21.2952   40.5728 C.ar    1  UNL1        0.0000
   3928 N          -8.5746   20.6964   41.8110 N.pl3   1  UNL1        0.0000
   3929 N          -4.2087    7.5350   49.8152 N.pl3  59  UNL59       0.0000
   3930 N          -2.8191   11.9550   46.9384 N.pl3   1  UNL1        0.0000
   3931 N          -4.7161    3.2184   48.5853 N.pl3   1  UNL1        0.0000
   3932 O          -3.5618   12.2433   44.3713 O.3     1  UNL1        0.0000
   3933 O         -13.9856    9.0087   47.2614 O.3     1  UNL1        0.0000
   3934 O          -6.7354    4.8758   48.9832 O.3     1  UNL1        0.0000
   3935 O         -10.1881   17.3243   42.6735 O.3     1  UNL1        0.0000
   3936 O          -9.3518   15.9374   44.2596 O.3     1  UNL1        0.0000
   3937 O          -8.2872    5.1197   47.3565 O.3     1  UNL1        0.0000
   3938 O          -1.9736   11.9189   42.7937 O.3     1  UNL1        0.0000
   3939 O         -14.7966   10.3958   48.8594 O.3     1  UNL1        0.0000
   3940 O          -4.6461   11.6641   41.7947 O.3     1  UNL1        0.0000
   3941 O         -12.2923    9.5227   49.3598 O.3     1  UNL1        0.0000
   3942 O          -3.7073   13.9514   42.2447 O.3     1  UNL1        0.0000
   3943 O         -14.0445    7.7980   49.8525 O.3     1  UNL1        0.0000
   3944 O          -9.4380    4.5900   49.9472 O.3     1  UNL1        0.0000
   3945 O          -7.6696   16.4855   42.1753 O.3     1  UNL1        0.0000
   3946 O          -8.4841    6.8515   49.4830 O.3     1  UNL1        0.0000
   3947 O          -9.3758   14.7283   41.6578 O.3     1  UNL1        0.0000
   3948 O          -7.0668    3.7358   51.2493 O.3     1  UNL1        0.0000
   3949 O          -8.8193   18.4091   40.4013 O.3     1  UNL1        0.0000
   3950 O          -6.2646    6.5240   51.2441 O.3     1  UNL1        0.0000
   3951 O         -11.0552   16.5733   40.3412 O.3     1  UNL1        0.0000
   3952 O          -1.5264   13.5985   40.3874 O.3     1  UNL1        0.0000
   3953 O         -15.6808    9.6382   51.1752 O.3     1  UNL1        0.0000
   3954 O          -2.3220   10.8442   40.4168 O.3     1  UNL1        0.0000
   3955 O         -13.4126   11.4205   51.2565 O.3     1  UNL1        0.0000
   3956 O          -6.4543   14.0555   42.2958 O.3     1  UNL1        0.0000
   3957 O         -11.1563    7.0517   49.2768 O.3     1  UNL1        0.0000
   3958 O          -4.0002   12.8304   39.3630 O.3     1  UNL1        0.0000
   3959 O          -8.5679   15.9324   39.1962 O.3     1  UNL1        0.0000
   3960 H          -7.3692    8.7437   47.5371 H       1  UNL1        0.0000
   3961 H         -11.2684    3.0559   46.0845 H       1  UNL1        0.0000
   3962 H          -6.5337   17.8255   44.7812 H       1  UNL1        0.0000
   3963 H          -6.2491   10.5012   46.1315 H       1  UNL1        0.0000
   3964 H         -11.1650   10.6916   46.9338 H       1  UNL1        0.0000
   3965 H         -14.7195    5.6155   45.8503 H       1  UNL1        0.0000
   3966 H          -9.8186    8.8454   47.8997 H       1  UNL1        0.0000
   3967 H         -10.0383   12.4586   45.5551 H       1  UNL1        0.0000
   3968 H          -5.4514   15.6295   44.3896 H       1  UNL1        0.0000
   3969 H         -19.0718   15.8222   44.9260 H       1  UNL1        0.0000
   3970 C          -8.0799   11.5811   45.7683 C.ar    1  UNL1        0.0000
   3971 C          -9.3289    9.6168   47.3065 C.ar    1  UNL1        0.0000
   3972 C          -4.8835   16.4344   44.8570 C.ar    1  UNL1        0.0000
   3973 C         -12.9223    4.4391   46.0340 C.ar    1  UNL1        0.0000
   3974 C          -9.4676   11.6445   45.9968 C.ar    1  UNL1        0.0000
   3975 C          -7.9452    9.5581   47.0998 C.ar    1  UNL1        0.0000
   3976 C          -5.4974   17.6731   45.0792 C.ar    1  UNL1        0.0000
   3977 C         -12.3046    3.1995   45.7850 C.ar    1  UNL1        0.0000
   3978 C          -3.5457   16.2257   45.2123 C.ar    1  UNL1        0.0000
   3979 C         -14.2601    4.6495   45.6514 C.ar    1  UNL1        0.0000
   3980 C          -7.3193   10.5371   46.3254 C.ar    1  UNL1        0.0000
   3981 C         -10.0903   10.6580   46.7613 C.ar    1  UNL1        0.0000
   3982 O          -6.1990   12.4384   44.5770 O.3     1  UNL1        0.0000
   3983 O         -12.8194    6.5645   47.1098 O.3     1  UNL1        0.0000
   3984 O         -10.9981    5.2411   47.1856 O.3     1  UNL1        0.0000
   3985 O          -8.1621   13.5300   44.4106 O.3     1  UNL1        0.0000
   3986 N          -4.9618   17.9465   64.3635 N.pl3  59  UNL59       0.0000
   3987 N          -4.4870   17.1670   66.3485 N.pl3  59  UNL59       0.0000
   3988 C          -4.2830   16.7514   64.1795 C.2    59  UNL59       0.0000
   3989 C          -3.9823   16.2663   65.4261 C.2    59  UNL59       0.0000
   3990 C          -3.1859   18.1166   68.2374 C.3    59  UNL59       0.0000
   3991 C          -5.4544   18.8311   63.3000 C.3    59  UNL59       0.0000
   3992 C          -5.0814   18.1754   65.6834 C.3    59  UNL59       0.0000
   3993 C          -4.2723   17.1307   67.8136 C.3    59  UNL59       0.0000
   3994 H          -4.0509   16.3554   63.1987 H      59  UNL59       0.0000
   3995 H          -3.4642   15.3650   65.7304 H      59  UNL59       0.0000
   3996 H          -2.2311   17.8873   67.7472 H      59  UNL59       0.0000
   3997 H          -4.6156   19.1151   62.6555 H      59  UNL59       0.0000
   3998 H          -3.4637   19.1506   67.9968 H      59  UNL59       0.0000
   3999 H          -6.2138   18.2923   62.7215 H      59  UNL59       0.0000
   4000 H          -3.0410   18.0482   69.3239 H      59  UNL59       0.0000
   4001 H          -3.9861   16.0997   68.0611 H      59  UNL59       0.0000
   4002 H          -5.8967   19.7201   63.7602 H      59  UNL59       0.0000
   4003 H          -5.5812   19.0245   66.1330 H      59  UNL59       0.0000
   4004 H          -5.2402   17.3361   68.2871 H      59  UNL59       0.0000
   4005 TI         -6.4071   45.5100   11.1664 Ti      1  UNL1        0.0000
   4006 TI          4.4234   48.3912    1.8016 Ti      1  UNL1        0.0000
   4007 TI         -2.3104   41.5738    9.3464 Ti      1  UNL1        0.0000
   4008 TI         -0.7992   50.7360    3.5734 Ti      1  UNL1        0.0000
   4009 TI         -1.7978   52.4143    1.6690 Ti      1  UNL1        0.0000
   4010 TI         -0.4222   41.3195   11.2998 Ti      1  UNL1        0.0000
   4011 TI         -5.4579   43.7741    9.2749 Ti      1  UNL1        0.0000
   4012 TI          2.4356   48.6938    3.6491 Ti      1  UNL1        0.0000
   4013 H          -5.9052   49.4071   10.9470 H       1  UNL1        0.0000
   4014 H           5.2322   44.4852    2.1223 H       1  UNL1        0.0000
   4015 H         -10.3670   44.7534   10.7840 H       1  UNL1        0.0000
   4016 H           7.8055   50.3955    2.0023 H       1  UNL1        0.0000
   4017 H           0.5534   37.2849   10.9139 H       1  UNL1        0.0000
   4018 H          -5.8563   51.8244    1.9911 H       1  UNL1        0.0000
   4019 H          -1.3033   50.7775   -0.2041 H       1  UNL1        0.0000
   4020 H           2.5479   48.1485    0.1017 H       1  UNL1        0.0000
   4021 H           0.0877   40.6524    5.7887 H       1  UNL1        0.0000
   4022 H          -2.5226   52.5730    7.1924 H       1  UNL1        0.0000
   4023 H          -9.5305   47.1628    8.9190 H       1  UNL1        0.0000
   4024 H           7.1781   46.3069    4.1076 H       1  UNL1        0.0000
   4025 H          -7.2294   45.7153    5.5852 H       1  UNL1        0.0000
   4026 H          -4.8979   54.2421    4.0223 H       1  UNL1        0.0000
   4027 H          -1.4055   55.5171    2.5245 H       1  UNL1        0.0000
   4028 H           5.0743   42.4663    3.3248 H       1  UNL1        0.0000
   4029 H           1.2934   50.4161    2.2348 H       1  UNL1        0.0000
   4030 H          -3.3911   43.4222   10.6401 H       1  UNL1        0.0000
   4031 H           3.8125   43.2543    9.6895 H       1  UNL1        0.0000
   4032 H           2.3314   42.7853   10.4368 H       1  UNL1        0.0000
   4033 H           4.3867   47.6880    8.5906 H       1  UNL1        0.0000
   4034 H           3.8169   48.0466    6.9720 H       1  UNL1        0.0000
   4035 H           3.3237   38.2995    9.4994 H       1  UNL1        0.0000
   4036 H           2.0446   39.4001    9.9568 H       1  UNL1        0.0000
   4037 C           5.0014   47.6500    4.6651 C.3     1  UNL1        0.0000
   4038 C          -7.3676   45.7714    8.3194 C.3     1  UNL1        0.0000
   4039 C           0.2701   40.5631    8.4217 C.3     1  UNL1        0.0000
   4040 C          -2.7353   52.7065    4.5328 C.3     1  UNL1        0.0000
   4041 C           5.8974   47.0457    5.6603 C.ar    1  UNL1        0.0000
   4042 C          -8.2995   46.3964    7.3423 C.ar    1  UNL1        0.0000
   4043 C           1.2103   39.9488    7.4745 C.ar    1  UNL1        0.0000
   4044 C          -3.6251   53.3533    5.5326 C.2     1  UNL1        0.0000
   4045 C           5.6487   47.1206    7.0667 C.ar    1  UNL1        0.0000
   4046 C          -8.0831   46.2764    5.9543 C.ar    1  UNL1        0.0000
   4047 C           2.3398   39.1885    7.9276 C.ar    1  UNL1        0.0000
   4048 C          -4.7199   54.1262    5.0876 C.3     1  UNL1        0.0000
   4049 C          -3.3707   53.1825    6.8874 C.2     1  UNL1        0.0000
   4050 C           0.9626   40.0809    6.0906 C.ar    1  UNL1        0.0000
   4051 C           7.0311   46.3467    5.1846 C.ar    1  UNL1        0.0000
   4052 C          -9.3997   47.0888    7.8410 C.ar    1  UNL1        0.0000
   4053 C           5.2132   44.5643   -0.0218 C.2     1  UNL1        0.0000
   4054 C          -1.2565   56.3558    0.0032 C.2     1  UNL1        0.0000
   4055 C           7.6976   50.3274   -0.1478 C.2     1  UNL1        0.0000
   4056 C          -5.6607   51.8698   -0.1672 C.2     1  UNL1        0.0000
   4057 C          -0.0525   48.3928    5.5380 C.3     1  UNL1        0.0000
   4058 C          -4.8086   41.2984    7.4561 C.3     1  UNL1        0.0000
   4059 C           5.0773   46.0191   -0.0450 C.2     1  UNL1        0.0000
   4060 C          -1.3493   54.9223   -0.0343 C.2     1  UNL1        0.0000
   4061 C           6.3998   49.7105   -0.1010 C.2     1  UNL1        0.0000
   4062 C          -4.2584   52.2842   -0.1427 C.2     1  UNL1        0.0000
   4063 C           5.2525   43.8951    1.2079 C.2     1  UNL1        0.0000
   4064 C          -5.8943   49.9955   11.8609 C.3     1  UNL1        0.0000
   4065 C           8.3529   50.6022    1.0861 C.2     1  UNL1        0.0000
   4066 C         -10.9285   44.5740   11.6993 C.ar    1  UNL1        0.0000
   4067 C           3.7573   43.5297   11.7138 C.ar    1  UNL1        0.0000
   4068 C          -6.3579   51.6394    1.0453 C.2     1  UNL1        0.0000
   4069 C           0.5950   36.7578   11.8629 C.ar    1  UNL1        0.0000
   4070 C          -1.2428   57.1070    1.2325 C.3     1  UNL1        0.0000
   4071 N          -1.1877   56.5082    2.4706 N.3     1  UNL1        0.0000
   4072 N           3.1783   43.3468   10.4748 N.pl3   1  UNL1        0.0000
   4073 N           4.5678   47.7668    7.5980 N.pl3   1  UNL1        0.0000
   4074 N           2.6708   39.0302    9.2450 N.pl3   1  UNL1        0.0000
   4075 O           3.8251   48.0551    5.0309 O.3     1  UNL1        0.0000
   4076 O          -6.5986   44.8205    7.9211 O.3     1  UNL1        0.0000
   4077 O           0.6516   40.6876    9.6428 O.3     1  UNL1        0.0000
   4078 O          -2.8012   53.1361    3.3332 O.3     1  UNL1        0.0000
   4079 O          -1.9649   51.7493    4.9192 O.3     1  UNL1        0.0000
   4080 O          -0.9003   40.9316    8.0162 O.3     1  UNL1        0.0000
   4081 O           5.4133   47.7308    3.4534 O.3     1  UNL1        0.0000
   4082 O          -7.4097   46.2077    9.5191 O.3     1  UNL1        0.0000
   4083 O           2.7408   47.4759    2.4544 O.3     1  UNL1        0.0000
   4084 O          -4.9054   45.3345   10.0195 O.3     1  UNL1        0.0000
   4085 O           3.6796   49.7632    2.9043 O.3     1  UNL1        0.0000
   4086 O          -6.6576   43.6098   10.5121 O.3     1  UNL1        0.0000
   4087 O          -2.0511   40.4019   10.6068 O.3     1  UNL1        0.0000
   4088 O          -0.2827   52.2973    2.8349 O.3     1  UNL1        0.0000
   4089 O          -1.0971   42.6634   10.1427 O.3     1  UNL1        0.0000
   4090 O          -1.9889   50.5402    2.3175 O.3     1  UNL1        0.0000
   4091 O           0.3201   39.5476   11.9089 O.3     1  UNL1        0.0000
   4092 O          -1.4324   54.2209    1.0609 O.2     1  UNL1        0.0000
   4093 O           1.1223   42.3358   11.9038 O.3     1  UNL1        0.0000
   4094 O          -3.6683   52.3852    1.0008 O.2     1  UNL1        0.0000
   4095 O           5.8605   49.4104    1.0470 O.2     1  UNL1        0.0000
   4096 O          -8.2939   45.4500   11.8349 O.3     1  UNL1        0.0000
   4097 O           5.0649   46.6560    1.0764 O.2     1  UNL1        0.0000
   4098 O          -6.0257   47.2323   11.9161 O.2     1  UNL1        0.0000
   4099 O           0.9326   49.8673    2.9554 O.3     1  UNL1        0.0000
   4100 O          -3.7694   42.8635    9.9365 O.3     1  UNL1        0.0000
   4101 O           3.3867   48.6422    0.0226 O.3     1  UNL1        0.0000
   4102 O          -1.1810   51.7443   -0.1441 O.3     1  UNL1        0.0000
   4103 H           0.0177   44.5555    8.1968 H       1  UNL1        0.0000
   4104 H          -3.8815   38.8677    6.7442 H       1  UNL1        0.0000
   4105 H           0.8532   53.6374    5.4408 H      59  UNL59       0.0000
   4106 H           1.1378   46.3131    6.7912 H       1  UNL1        0.0000
   4107 H          -3.7781   46.5034    7.5934 H       1  UNL1        0.0000
   4108 H          -7.3326   41.4274    6.5099 H       1  UNL1        0.0000
   4109 H          -2.4317   44.6573    8.5593 H       1  UNL1        0.0000
   4110 H          -2.6514   48.2704    6.2148 H       1  UNL1        0.0000
   4111 H           1.9355   51.4414    5.0493 H      59  UNL59       0.0000
   4112 H         -11.6849   51.6340    5.5856 H      11  UNL11       0.0000
   4113 C          -0.6930   47.3929    6.4280 C.ar    1  UNL1        0.0000
   4114 C          -1.9420   45.4286    7.9661 C.ar    1  UNL1        0.0000
   4115 C           2.5034   52.2462    5.5167 C.2    59  UNL59       0.0000
   4116 C          -5.5354   40.2509    6.6937 C.ar    1  UNL1        0.0000
   4117 C          -2.0807   47.4563    6.6565 C.ar    1  UNL1        0.0000
   4118 C          -0.5583   45.3699    7.7595 C.ar    1  UNL1        0.0000
   4119 C           1.8895   53.4850    5.7388 C.3    59  UNL59       0.0000
   4120 C          -4.9176   39.0113    6.4447 C.ar    1  UNL1        0.0000
   4121 C           3.8412   52.0375    5.8720 C.2    59  UNL59       0.0000
   4122 C          -6.8732   40.4613    6.3110 C.ar    1  UNL1        0.0000
   4123 C           0.0676   46.3490    6.9850 C.ar    1  UNL1        0.0000
   4124 C          -2.7033   46.4699    7.4209 C.ar    1  UNL1        0.0000
   4125 O           1.1879   48.2502    5.2366 O.3     1  UNL1        0.0000
   4126 O          -5.4325   42.3763    7.7694 O.3     1  UNL1        0.0000
   4127 O          -3.6111   41.0529    7.8452 O.3     1  UNL1        0.0000
   4128 O          -0.7752   49.3418    5.0702 O.3     1  UNL1        0.0000
   4129 N           2.4252   53.7583   25.0232 N.pl3  59  UNL59       0.0000
   4130 N           2.8999   52.9789   27.0082 N.pl3  59  UNL59       0.0000
   4131 C           3.1039   52.5632   24.8392 C.2    59  UNL59       0.0000
   4132 C           3.4046   52.0781   26.0858 C.2    59  UNL59       0.0000
   4133 C           4.2010   53.9284   28.8970 C.3    59  UNL59       0.0000
   4134 C           1.9325   54.6429   23.9596 C.3    59  UNL59       0.0000
   4135 C           2.3055   53.9873   26.3430 C.3    59  UNL59       0.0000
   4136 C           3.1146   52.9425   28.4733 C.3    59  UNL59       0.0000
   4137 H           3.3360   52.1672   23.8583 H      59  UNL59       0.0000
   4138 H           3.9227   51.1768   26.3900 H      59  UNL59       0.0000
   4139 H           5.1558   53.6991   28.4068 H      59  UNL59       0.0000
   4140 H           2.7713   54.9269   23.3152 H      59  UNL59       0.0000
   4141 H           3.9232   54.9624   28.6565 H      59  UNL59       0.0000
   4142 H           1.1731   54.1041   23.3812 H      59  UNL59       0.0000
   4143 H           4.3460   53.8601   29.9836 H      59  UNL59       0.0000
   4144 H           3.4009   51.9115   28.7207 H      59  UNL59       0.0000
   4145 H           1.4902   55.5319   24.4199 H      59  UNL59       0.0000
   4146 H           1.8057   54.8363   26.7926 H      59  UNL59       0.0000
   4147 H           2.1467   53.1479   28.9467 H      59  UNL59       0.0000
   4148 TI        -11.0417   38.4436   24.2610 Ti      1  UNL1        0.0000
   4149 TI         -0.2113   41.3248   14.8962 Ti      1  UNL1        0.0000
   4150 TI         -6.9450   34.5074   22.4410 Ti      1  UNL1        0.0000
   4151 TI         -5.4339   43.6695   16.6680 Ti      1  UNL1        0.0000
   4152 TI         -6.4324   45.3478   14.7636 Ti      1  UNL1        0.0000
   4153 TI         -5.0568   34.2530   24.3944 Ti      1  UNL1        0.0000
   4154 TI        -10.0925   36.7077   22.3695 Ti      1  UNL1        0.0000
   4155 TI         -2.1991   41.6274   16.7437 Ti      1  UNL1        0.0000
   4156 H         -10.5399   42.3407   24.0416 H       1  UNL1        0.0000
   4157 H           0.5975   37.4188   15.2169 H       1  UNL1        0.0000
   4158 H         -15.0016   37.6870   23.8786 H       1  UNL1        0.0000
   4159 H           3.1709   43.3291   15.0969 H       1  UNL1        0.0000
   4160 H          -4.0812   30.2185   24.0085 H       1  UNL1        0.0000
   4161 H         -10.4910   44.7579   15.0857 H       1  UNL1        0.0000
   4162 H          -5.9380   43.7110   12.8905 H       1  UNL1        0.0000
   4163 H          -2.0868   41.0821   13.1963 H       1  UNL1        0.0000
   4164 H          -4.5469   33.5859   18.8833 H       1  UNL1        0.0000
   4165 H          -7.1573   45.5065   20.2870 H       1  UNL1        0.0000
   4166 H         -14.1652   40.0963   22.0136 H       1  UNL1        0.0000
   4167 H           2.5435   39.2405   17.2022 H       1  UNL1        0.0000
   4168 H         -11.8640   38.6489   18.6798 H       1  UNL1        0.0000
   4169 H          -9.5325   47.1757   17.1169 H       1  UNL1        0.0000
   4170 H          -6.0402   48.4507   15.6191 H       1  UNL1        0.0000
   4171 H           0.4397   35.3999   16.4194 H       1  UNL1        0.0000
   4172 H          -3.3412   43.3497   15.3294 H       1  UNL1        0.0000
   4173 H          -8.0257   36.3558   23.7347 H       1  UNL1        0.0000
   4174 H          -0.8221   36.1879   22.7841 H       1  UNL1        0.0000
   4175 H          -2.3032   35.7188   23.5314 H       1  UNL1        0.0000
   4176 H          -0.2480   40.6215   21.6852 H       1  UNL1        0.0000
   4177 H          -0.8177   40.9801   20.0666 H       1  UNL1        0.0000
   4178 H          -1.3109   31.2331   22.5940 H       1  UNL1        0.0000
   4179 H          -2.5901   32.3337   23.0514 H       1  UNL1        0.0000
   4180 C           0.3668   40.5836   17.7597 C.3     1  UNL1        0.0000
   4181 C         -12.0023   38.7050   21.4140 C.3     1  UNL1        0.0000
   4182 C          -4.3645   33.4967   21.5163 C.3     1  UNL1        0.0000
   4183 C          -7.3700   45.6400   17.6274 C.3     1  UNL1        0.0000
   4184 C           1.2628   39.9793   18.7549 C.ar    1  UNL1        0.0000
   4185 C         -12.9342   39.3300   20.4369 C.ar    1  UNL1        0.0000
   4186 C          -3.4243   32.8823   20.5691 C.ar    1  UNL1        0.0000
   4187 C          -8.2598   46.2868   18.6272 C.2     1  UNL1        0.0000
   4188 C           1.0140   40.0542   20.1614 C.ar    1  UNL1        0.0000
   4189 C         -12.7178   39.2100   19.0489 C.ar    1  UNL1        0.0000
   4190 C          -2.2949   32.1220   21.0222 C.ar    1  UNL1        0.0000
   4191 C          -9.3545   47.0598   18.1822 C.3     1  UNL1        0.0000
   4192 C          -8.0053   46.1161   19.9820 C.2     1  UNL1        0.0000
   4193 C          -3.6721   33.0145   19.1852 C.ar    1  UNL1        0.0000
   4194 C           2.3965   39.2803   18.2792 C.ar    1  UNL1        0.0000
   4195 C         -14.0343   40.0224   20.9356 C.ar    1  UNL1        0.0000
   4196 C           0.5785   37.4978   13.0728 C.ar    1  UNL1        0.0000
   4197 C          -5.8912   49.2894   13.0978 C.2     1  UNL1        0.0000
   4198 C           3.0630   43.2609   12.9468 C.ar    1  UNL1        0.0000
   4199 C         -10.2953   44.8034   12.9274 C.ar    1  UNL1        0.0000
   4200 C          -4.6871   41.3263   18.6326 C.3     1  UNL1        0.0000
   4201 C          -9.4432   34.2320   20.5507 C.3     1  UNL1        0.0000
   4202 C           0.4427   38.9527   13.0496 C.3     1  UNL1        0.0000
   4203 C          -5.9839   47.8559   13.0603 C.2     1  UNL1        0.0000
   4204 C           1.7652   42.6441   12.9937 C.3     1  UNL1        0.0000
   4205 C          -8.8930   45.2177   12.9519 C.3     1  UNL1        0.0000
   4206 C           0.6179   36.8287   14.3025 C.ar    1  UNL1        0.0000
   4207 C         -10.5289   42.9291   24.9555 C.3     1  UNL1        0.0000
   4208 C           3.7183   43.5357   14.1808 C.ar    1  UNL1        0.0000
   4209 C         -15.5631   37.5076   24.7939 C.ar    1  UNL1        0.0000
   4210 C          -0.8774   36.4632   24.8084 C.ar    1  UNL1        0.0000
   4211 C         -10.9925   44.5730   14.1399 C.ar    1  UNL1        0.0000
   4212 C          -4.0396   29.6913   24.9575 C.ar    1  UNL1        0.0000
   4213 C          -5.8774   50.0406   14.3271 C.3     1  UNL1        0.0000
   4214 N          -5.8223   49.4418   15.5653 N.3     1  UNL1        0.0000
   4215 N          -1.4564   36.2804   23.5695 N.pl3   1  UNL1        0.0000
   4216 N          -0.0668   40.7004   20.6926 N.pl3   1  UNL1        0.0000
   4217 N          -1.9639   31.9638   22.3396 N.pl3   1  UNL1        0.0000
   4218 O          -0.8095   40.9887   18.1255 O.3     1  UNL1        0.0000
   4219 O         -11.2333   37.7541   21.0157 O.3     1  UNL1        0.0000
   4220 O          -3.9831   33.6212   22.7374 O.3     1  UNL1        0.0000
   4221 O          -7.4358   46.0697   16.4278 O.3     1  UNL1        0.0000
   4222 O          -6.5995   44.6828   18.0138 O.3     1  UNL1        0.0000
   4223 O          -5.5350   33.8651   21.1108 O.3     1  UNL1        0.0000
   4224 O           0.7787   40.6643   16.5480 O.3     1  UNL1        0.0000
   4225 O         -12.0443   39.1412   22.6137 O.3     1  UNL1        0.0000
   4226 O          -1.8939   40.4094   15.5490 O.3     1  UNL1        0.0000
   4227 O          -9.5401   38.2681   23.1141 O.3     1  UNL1        0.0000
   4228 O          -0.9551   42.6967   15.9990 O.3     1  UNL1        0.0000
   4229 O         -11.2923   36.5434   23.6067 O.3     1  UNL1        0.0000
   4230 O          -6.6857   33.3354   23.7015 O.3     1  UNL1        0.0000
   4231 O          -4.9173   45.2308   15.9295 O.3     1  UNL1        0.0000
   4232 O          -5.7318   35.5969   23.2373 O.3     1  UNL1        0.0000
   4233 O          -6.6235   43.4737   15.4121 O.3     1  UNL1        0.0000
   4234 O          -4.3145   32.4812   25.0035 O.3     1  UNL1        0.0000
   4235 O          -6.0670   47.1545   14.1555 O.2     1  UNL1        0.0000
   4236 O          -3.5124   35.2694   24.9984 O.3     1  UNL1        0.0000
   4237 O          -8.3030   45.3187   14.0954 O.3     1  UNL1        0.0000
   4238 O           1.2258   42.3439   14.1416 O.3     1  UNL1        0.0000
   4239 O         -12.9285   38.3835   24.9295 O.3     1  UNL1        0.0000
   4240 O           0.4302   39.5896   14.1711 O.3     1  UNL1        0.0000
   4241 O         -10.6603   40.1659   25.0107 O.2     1  UNL1        0.0000
   4242 O          -3.7021   42.8009   16.0501 O.3     1  UNL1        0.0000
   4243 O          -8.4040   35.7971   23.0311 O.3     1  UNL1        0.0000
   4244 O          -1.2480   41.5758   13.1173 O.3     1  UNL1        0.0000
   4245 O          -5.8156   44.6778   12.9505 O.3     1  UNL1        0.0000
   4246 H          -4.6170   37.4890   21.2914 H       1  UNL1        0.0000
   4247 H          -8.5162   31.8012   19.8388 H       1  UNL1        0.0000
   4248 H          -3.7814   46.5709   18.5355 H      59  UNL59       0.0000
   4249 H          -3.4969   39.2466   19.8858 H       1  UNL1        0.0000
   4250 H          -8.4128   39.4370   20.6880 H       1  UNL1        0.0000
   4251 H         -11.9672   34.3609   19.6045 H       1  UNL1        0.0000
   4252 H          -7.0664   37.5908   21.6539 H       1  UNL1        0.0000
   4253 H          -7.2860   41.2040   19.3094 H       1  UNL1        0.0000
   4254 H          -2.6992   44.3749   18.1439 H      59  UNL59       0.0000
   4255 H         -16.3195   44.5676   18.6802 H      12  UNL12       0.0000
   4256 C          -5.3277   40.3265   19.5226 C.ar    1  UNL1        0.0000
   4257 C          -6.5767   38.3621   21.0607 C.ar    1  UNL1        0.0000
   4258 C          -2.1312   45.1798   18.6113 C.2    59  UNL59       0.0000
   4259 C         -10.1700   33.1845   19.7883 C.ar    1  UNL1        0.0000
   4260 C          -6.7153   40.3899   19.7511 C.ar    1  UNL1        0.0000
   4261 C          -5.1930   38.3034   20.8541 C.ar    1  UNL1        0.0000
   4262 C          -2.7452   46.4185   18.8334 C.3    59  UNL59       0.0000
   4263 C          -9.5523   31.9448   19.5393 C.ar    1  UNL1        0.0000
   4264 C          -0.7934   44.9710   18.9666 C.2    59  UNL59       0.0000
   4265 C         -11.5078   33.3948   19.4056 C.ar    1  UNL1        0.0000
   4266 C          -4.5670   39.2825   20.0797 C.ar    1  UNL1        0.0000
   4267 C          -7.3380   39.4034   20.5155 C.ar    1  UNL1        0.0000
   4268 O          -3.4468   41.1838   18.3312 O.3     1  UNL1        0.0000
   4269 O         -10.0671   35.3099   20.8640 O.3     1  UNL1        0.0000
   4270 O          -8.2458   33.9865   20.9398 O.3     1  UNL1        0.0000
   4271 O          -5.4098   42.2754   18.1648 O.3     1  UNL1        0.0000
   4272 N          -2.2095   46.6919   38.1178 N.pl3  59  UNL59       0.0000
   4273 N          -1.7348   45.9124   40.1028 N.pl3  59  UNL59       0.0000
   4274 C          -1.5307   45.4968   37.9338 C.2    59  UNL59       0.0000
   4275 C          -1.2301   45.0117   39.1804 C.2    59  UNL59       0.0000
   4276 C          -0.4336   46.8619   41.9917 C.3    59  UNL59       0.0000
   4277 C          -2.7021   47.5765   37.0542 C.3    59  UNL59       0.0000
   4278 C          -2.3292   46.9208   39.4376 C.3    59  UNL59       0.0000
   4279 C          -1.5201   45.8761   41.5679 C.3    59  UNL59       0.0000
   4280 H          -1.2986   45.1007   36.9529 H      59  UNL59       0.0000
   4281 H          -0.7119   44.1104   39.4846 H      59  UNL59       0.0000
   4282 H           0.5211   46.6326   41.5014 H      59  UNL59       0.0000
   4283 H          -1.8633   47.8605   36.4098 H      59  UNL59       0.0000
   4284 H          -0.7115   47.8959   41.7511 H      59  UNL59       0.0000
   4285 H          -3.4615   47.0377   36.4758 H      59  UNL59       0.0000
   4286 H          -0.2887   46.7936   43.0782 H      59  UNL59       0.0000
   4287 H          -1.2338   44.8450   41.8153 H      59  UNL59       0.0000
   4288 H          -3.1444   48.4655   37.5145 H      59  UNL59       0.0000
   4289 H          -2.8289   47.7698   39.8872 H      59  UNL59       0.0000
   4290 H          -2.4879   46.0814   42.0413 H      59  UNL59       0.0000
   4291 TI        -15.6764   31.3771   37.3556 Ti      1  UNL1        0.0000
   4292 TI         -4.8459   34.2584   27.9908 Ti      1  UNL1        0.0000
   4293 TI        -11.5797   27.4410   35.5356 Ti      1  UNL1        0.0000
   4294 TI        -10.0685   36.6031   29.7626 Ti      1  UNL1        0.0000
   4295 TI        -11.0671   38.2814   27.8582 Ti      1  UNL1        0.0000
   4296 TI         -9.6915   27.1866   37.4890 Ti      1  UNL1        0.0000
   4297 TI        -14.7272   29.6413   35.4642 Ti      1  UNL1        0.0000
   4298 TI         -6.8337   34.5609   29.8383 Ti      1  UNL1        0.0000
   4299 H         -15.1745   35.2742   37.1362 H       1  UNL1        0.0000
   4300 H          -4.0371   30.3523   28.3115 H       1  UNL1        0.0000
   4301 H         -19.6363   30.6205   36.9732 H       1  UNL1        0.0000
   4302 H          -1.4638   36.2627   28.1915 H       1  UNL1        0.0000
   4303 H          -8.7159   23.1521   37.1031 H       1  UNL1        0.0000
   4304 H         -15.1256   37.6915   28.1803 H       1  UNL1        0.0000
   4305 H         -10.5726   36.6446   25.9851 H       1  UNL1        0.0000
   4306 H          -6.7214   34.0157   26.2909 H       1  UNL1        0.0000
   4307 H          -9.1816   26.5195   31.9779 H       1  UNL1        0.0000
   4308 H         -11.7919   38.4401   33.3816 H       1  UNL1        0.0000
   4309 H         -18.7998   33.0299   35.1082 H       1  UNL1        0.0000
   4310 H          -2.0911   32.1740   30.2968 H       1  UNL1        0.0000
   4311 H         -16.4987   31.5824   31.7744 H       1  UNL1        0.0000
   4312 H         -14.1672   40.1093   30.2115 H       1  UNL1        0.0000
   4313 H         -10.6748   41.3842   28.7137 H       1  UNL1        0.0000
   4314 H          -4.1950   28.3335   29.5140 H       1  UNL1        0.0000
   4315 H          -7.9759   36.2832   28.4240 H       1  UNL1        0.0000
   4316 H         -12.6604   29.2893   36.8293 H       1  UNL1        0.0000
   4317 H          -5.4567   29.1215   35.8787 H       1  UNL1        0.0000
   4318 H          -6.9379   28.6524   36.6260 H       1  UNL1        0.0000
   4319 H          -4.8826   33.5551   34.7798 H       1  UNL1        0.0000
   4320 H          -5.4523   33.9137   33.1612 H       1  UNL1        0.0000
   4321 H          -5.9456   24.1666   35.6886 H       1  UNL1        0.0000
   4322 H          -7.2247   25.2672   36.1460 H       1  UNL1        0.0000
   4323 C          -4.2679   33.5171   30.8543 C.3     1  UNL1        0.0000
   4324 C         -16.6369   31.6385   34.5086 C.3     1  UNL1        0.0000
   4325 C          -8.9992   26.4303   34.6109 C.3     1  UNL1        0.0000
   4326 C         -12.0046   38.5736   30.7220 C.3     1  UNL1        0.0000
   4327 C          -3.3718   32.9128   31.8495 C.ar    1  UNL1        0.0000
   4328 C         -17.5688   32.2636   33.5316 C.ar    1  UNL1        0.0000
   4329 C          -8.0590   25.8159   33.6637 C.ar    1  UNL1        0.0000
   4330 C         -12.8944   39.2204   31.7218 C.2     1  UNL1        0.0000
   4331 C          -3.6206   32.9877   33.2560 C.ar    1  UNL1        0.0000
   4332 C         -17.3524   32.1436   32.1435 C.ar    1  UNL1        0.0000
   4333 C          -6.9295   25.0556   34.1168 C.ar    1  UNL1        0.0000
   4334 C         -13.9892   39.9934   31.2768 C.3     1  UNL1        0.0000
   4335 C         -12.6399   39.0496   33.0767 C.2     1  UNL1        0.0000
   4336 C          -8.3067   25.9480   32.2798 C.ar    1  UNL1        0.0000
   4337 C          -2.2382   32.2138   31.3738 C.ar    1  UNL1        0.0000
   4338 C         -18.6690   32.9560   34.0302 C.ar    1  UNL1        0.0000
   4339 C          -4.0561   30.4314   26.1674 C.ar    1  UNL1        0.0000
   4340 C         -10.5258   42.2230   26.1924 C.2     1  UNL1        0.0000
   4341 C          -1.5717   36.1945   26.0414 C.ar    1  UNL1        0.0000
   4342 C         -14.9300   37.7369   26.0220 C.ar    1  UNL1        0.0000
   4343 C          -9.3218   34.2599   31.7272 C.3     1  UNL1        0.0000
   4344 C         -14.0779   27.1655   33.6453 C.3     1  UNL1        0.0000
   4345 C          -4.1920   31.8862   26.1442 C.3     1  UNL1        0.0000
   4346 C         -10.6186   40.7895   26.1549 C.2     1  UNL1        0.0000
   4347 C          -2.8695   35.5777   26.0883 C.3     1  UNL1        0.0000
   4348 C         -13.5277   38.1513   26.0465 C.3     1  UNL1        0.0000
   4349 C          -4.0167   29.7623   27.3971 C.ar    1  UNL1        0.0000
   4350 C         -15.1636   35.8626   38.0501 C.3     1  UNL1        0.0000
   4351 C          -0.9164   36.4693   27.2754 C.ar    1  UNL1        0.0000
   4352 C         -20.1978   30.4411   37.8885 C.ar    1  UNL1        0.0000
   4353 C          -5.5120   29.3968   37.9030 C.ar    1  UNL1        0.0000
   4354 C         -15.6272   37.5065   27.2345 C.ar    1  UNL1        0.0000
   4355 C          -8.6742   22.6249   38.0521 C.ar    1  UNL1        0.0000
   4356 C         -10.5121   42.9742   27.4217 C.3     1  UNL1        0.0000
   4357 N         -10.4570   42.3753   28.6599 N.3     1  UNL1        0.0000
   4358 N          -6.0910   29.2139   36.6641 N.pl3   1  UNL1        0.0000
   4359 N          -4.7015   33.6340   33.7873 N.pl3   1  UNL1        0.0000
   4360 N          -6.5985   24.8974   35.4342 N.pl3   1  UNL1        0.0000
   4361 O          -5.4442   33.9222   31.2201 O.3     1  UNL1        0.0000
   4362 O         -15.8679   30.6877   34.1103 O.3     1  UNL1        0.0000
   4363 O          -8.6177   26.5547   35.8320 O.3     1  UNL1        0.0000
   4364 O         -12.0705   39.0033   29.5224 O.3     1  UNL1        0.0000
   4365 O         -11.2342   37.6164   31.1084 O.3     1  UNL1        0.0000
   4366 O         -10.1696   26.7987   34.2054 O.3     1  UNL1        0.0000
   4367 O          -3.8560   33.5979   29.6426 O.3     1  UNL1        0.0000
   4368 O         -16.6789   32.0748   35.7083 O.3     1  UNL1        0.0000
   4369 O          -6.5285   33.3430   28.6436 O.3     1  UNL1        0.0000
   4370 O         -14.1747   31.2016   36.2087 O.3     1  UNL1        0.0000
   4371 O          -5.5897   35.6303   29.0936 O.3     1  UNL1        0.0000
   4372 O         -15.9269   29.4769   36.7013 O.3     1  UNL1        0.0000
   4373 O         -11.3204   26.2690   36.7961 O.3     1  UNL1        0.0000
   4374 O          -9.5520   38.1644   29.0241 O.3     1  UNL1        0.0000
   4375 O         -10.3664   28.5305   36.3319 O.3     1  UNL1        0.0000
   4376 O         -11.2582   36.4073   28.5067 O.3     1  UNL1        0.0000
   4377 O          -8.9492   25.4148   38.0981 O.3     1  UNL1        0.0000
   4378 O         -10.7017   40.0880   27.2501 O.2     1  UNL1        0.0000
   4379 O          -8.1470   28.2029   38.0930 O.3     1  UNL1        0.0000
   4380 O         -12.9376   38.2523   27.1901 O.3     1  UNL1        0.0000
   4381 O          -3.4088   35.2775   27.2363 O.3     1  UNL1        0.0000
   4382 O         -17.5632   31.3171   38.0241 O.3     1  UNL1        0.0000
   4383 O          -4.2044   32.5232   27.2657 O.3     1  UNL1        0.0000
   4384 O         -15.2950   33.0994   38.1053 O.2     1  UNL1        0.0000
   4385 O          -8.3367   35.7345   29.1447 O.3     1  UNL1        0.0000
   4386 O         -13.0387   28.7307   36.1257 O.3     1  UNL1        0.0000
   4387 O          -5.8826   34.5093   26.2119 O.3     1  UNL1        0.0000
   4388 O         -10.4503   37.6114   26.0451 O.3     1  UNL1        0.0000
   4389 H          -9.2516   30.4226   34.3860 H       1  UNL1        0.0000
   4390 H         -13.1508   24.7348   32.9334 H       1  UNL1        0.0000
   4391 H          -8.4161   39.5045   31.6301 H      59  UNL59       0.0000
   4392 H          -8.1315   32.1802   32.9804 H       1  UNL1        0.0000
   4393 H         -13.0474   32.3706   33.7827 H       1  UNL1        0.0000
   4394 H         -16.6019   27.2945   32.6991 H       1  UNL1        0.0000
   4395 H         -11.7010   30.5244   34.7485 H       1  UNL1        0.0000
   4396 H         -11.9207   34.1375   32.4040 H       1  UNL1        0.0000
   4397 H          -7.3338   37.3085   31.2385 H      59  UNL59       0.0000
   4398 H         -20.9542   37.5012   31.7748 H      13  UNL13       0.0000
   4399 C          -9.9623   33.2601   32.6172 C.ar    1  UNL1        0.0000
   4400 C         -11.2113   31.2957   34.1553 C.ar    1  UNL1        0.0000
   4401 C          -6.7659   38.1133   31.7059 C.2    59  UNL59       0.0000
   4402 C         -14.8047   26.1181   32.8829 C.ar    1  UNL1        0.0000
   4403 C         -11.3499   33.3234   32.8457 C.ar    1  UNL1        0.0000
   4404 C          -9.8276   31.2370   33.9487 C.ar    1  UNL1        0.0000
   4405 C          -7.3798   39.3521   31.9280 C.3    59  UNL59       0.0000
   4406 C         -14.1869   24.8784   32.6339 C.ar    1  UNL1        0.0000
   4407 C          -5.4281   37.9046   32.0612 C.2    59  UNL59       0.0000
   4408 C         -16.1425   26.3284   32.5002 C.ar    1  UNL1        0.0000
   4409 C          -9.2017   32.2161   33.1743 C.ar    1  UNL1        0.0000
   4410 C         -11.9726   32.3370   33.6101 C.ar    1  UNL1        0.0000
   4411 O          -8.0814   34.1173   31.4258 O.3     1  UNL1        0.0000
   4412 O         -14.7018   28.2435   33.9586 O.3     1  UNL1        0.0000
   4413 O         -12.8804   26.9200   34.0344 O.3     1  UNL1        0.0000
   4414 O         -10.0445   35.2090   31.2594 O.3     1  UNL1        0.0000
   4415 N          -6.8441   39.6254   51.2124 N.pl3  59  UNL59       0.0000
   4416 N          -6.3694   38.8460   53.1974 N.pl3  59  UNL59       0.0000
   4417 C          -6.1654   38.4303   51.0284 C.2    59  UNL59       0.0000
   4418 C          -5.8647   37.9453   52.2750 C.2    59  UNL59       0.0000
   4419 C          -5.0683   39.7955   55.0863 C.3    59  UNL59       0.0000
   4420 C          -7.3368   40.5100   50.1489 C.3    59  UNL59       0.0000
   4421 C          -6.9638   39.8544   52.5322 C.3    59  UNL59       0.0000
   4422 C          -6.1547   38.8097   54.6625 C.3    59  UNL59       0.0000
   4423 H          -5.9333   38.0343   50.0475 H      59  UNL59       0.0000
   4424 H          -5.3466   37.0440   52.5792 H      59  UNL59       0.0000
   4425 H          -4.1135   39.5662   54.5960 H      59  UNL59       0.0000
   4426 H          -6.4980   40.7940   49.5044 H      59  UNL59       0.0000
   4427 H          -5.3461   40.8295   54.8457 H      59  UNL59       0.0000
   4428 H          -8.0962   39.9712   49.5704 H      59  UNL59       0.0000
   4429 H          -4.9233   39.7272   56.1728 H      59  UNL59       0.0000
   4430 H          -5.8684   37.7786   54.9099 H      59  UNL59       0.0000
   4431 H          -7.7791   41.3990   50.6091 H      59  UNL59       0.0000
   4432 H          -7.4635   40.7034   52.9818 H      59  UNL59       0.0000
   4433 H          -7.1226   39.0150   55.1359 H      59  UNL59       0.0000
   4434 TI        -20.3110   24.3107   50.4502 Ti      1  UNL1        0.0000
   4435 TI         -9.4806   27.1919   41.0854 Ti      1  UNL1        0.0000
   4436 TI        -16.2143   20.3745   48.6303 Ti      1  UNL1        0.0000
   4437 TI        -14.7031   29.5367   42.8572 Ti      1  UNL1        0.0000
   4438 TI        -15.7017   31.2150   40.9528 Ti      1  UNL1        0.0000
   4439 TI        -14.3261   20.1202   50.5836 Ti      1  UNL1        0.0000
   4440 TI        -19.3618   22.5748   48.5588 Ti      1  UNL1        0.0000
   4441 TI        -11.4684   27.4945   42.9329 Ti      1  UNL1        0.0000
   4442 H         -19.8092   28.2078   50.2308 H      59  UNL59       0.0000
   4443 H          -8.6718   23.2859   41.4061 H       1  UNL1        0.0000
   4444 H         -24.2709   23.5541   50.0678 H      16  UNL16       0.0000
   4445 H          -6.0984   29.1962   41.2861 H       1  UNL1        0.0000
   4446 H         -13.3505   16.0856   50.1977 H      59  UNL59       0.0000
   4447 H         -19.7602   30.6251   41.2749 H       1  UNL1        0.0000
   4448 H         -15.2073   29.5782   39.0798 H       1  UNL1        0.0000
   4449 H         -11.3561   26.9492   39.3855 H       1  UNL1        0.0000
   4450 H         -13.8162   19.4531   45.0725 H       1  UNL1        0.0000
   4451 H         -16.4266   31.3737   46.4762 H       1  UNL1        0.0000
   4452 H         -23.4344   25.9635   48.2029 H       1  UNL1        0.0000
   4453 H          -6.7258   25.1076   43.3914 H       1  UNL1        0.0000
   4454 H         -21.1333   24.5160   44.8690 H       1  UNL1        0.0000
   4455 H         -18.8018   33.0428   43.3061 H       1  UNL1        0.0000
   4456 H         -15.3095   34.3178   41.8083 H       1  UNL1        0.0000
   4457 H          -8.8296   21.2670   42.6086 H       1  UNL1        0.0000
   4458 H         -12.6105   29.2168   41.5186 H       1  UNL1        0.0000
   4459 H         -17.2950   22.2229   49.9239 H       1  UNL1        0.0000
   4460 H         -10.0914   22.0550   48.9733 H      59  UNL59       0.0000
   4461 H         -11.5725   21.5860   49.7206 H      59  UNL59       0.0000
   4462 H          -9.5173   26.4887   47.8744 H       1  UNL1        0.0000
   4463 H         -10.0870   26.8472   46.2558 H       1  UNL1        0.0000
   4464 H         -10.5802   17.1002   48.7833 H       1  UNL1        0.0000
   4465 H         -11.8594   18.2008   49.2407 H       1  UNL1        0.0000
   4466 C          -8.9025   26.4507   43.9490 C.3     1  UNL1        0.0000
   4467 C         -21.2716   24.5721   47.6032 C.3     1  UNL1        0.0000
   4468 C         -13.6338   19.3638   47.7055 C.3     1  UNL1        0.0000
   4469 C         -16.6393   31.5072   43.8166 C.3     1  UNL1        0.0000
   4470 C          -8.0065   25.8464   44.9441 C.ar    1  UNL1        0.0000
   4471 C         -22.2035   25.1971   46.6262 C.ar    1  UNL1        0.0000
   4472 C         -12.6936   18.7495   46.7583 C.ar    1  UNL1        0.0000
   4473 C         -17.5291   32.1540   44.8164 C.2     1  UNL1        0.0000
   4474 C          -8.2553   25.9213   46.3506 C.ar    1  UNL1        0.0000
   4475 C         -21.9871   25.0771   45.2381 C.ar    1  UNL1        0.0000
   4476 C         -11.5642   17.9892   47.2114 C.ar    1  UNL1        0.0000
   4477 C         -18.6238   32.9269   44.3715 C.3     1  UNL1        0.0000
   4478 C         -17.2746   31.9832   46.1713 C.2     1  UNL1        0.0000
   4479 C         -12.9413   18.8816   45.3744 C.ar    1  UNL1        0.0000
   4480 C          -6.8728   25.1474   44.4684 C.ar    1  UNL1        0.0000
   4481 C         -23.3036   25.8895   47.1248 C.ar    1  UNL1        0.0000
   4482 C          -8.6907   23.3649   39.2620 C.ar    1  UNL1        0.0000
   4483 C         -15.1605   35.1565   39.2870 C.2     1  UNL1        0.0000
   4484 C          -6.2063   29.1281   39.1360 C.ar    1  UNL1        0.0000
   4485 C         -19.5646   30.6705   39.1166 C.ar    1  UNL1        0.0000
   4486 C         -13.9564   27.1935   44.8218 C.3     1  UNL1        0.0000
   4487 C         -18.7125   20.0991   46.7400 C.3     1  UNL1        0.0000
   4488 C          -8.8266   24.8198   39.2388 C.3     1  UNL1        0.0000
   4489 C         -15.2532   33.7230   39.2495 C.2     1  UNL1        0.0000
   4490 C          -7.5041   28.5112   39.1829 C.3     1  UNL1        0.0000
   4491 C         -18.1623   31.0848   39.1411 C.3     1  UNL1        0.0000
   4492 C          -8.6514   22.6958   40.4917 C.ar    1  UNL1        0.0000
   4493 C         -19.7982   28.7962   51.1447 C.3    60  UNL60       0.0000
   4494 C          -5.5510   29.4029   40.3700 C.ar    1  UNL1        0.0000
   4495 C         -24.8324   23.3747   50.9831 C.2    16  UNL16       0.0000
   4496 C         -10.1467   22.3304   50.9976 C.2    59  UNL59       0.0000
   4497 C         -20.2618   30.4401   40.3291 C.ar    1  UNL1        0.0000
   4498 C         -13.3089   15.5585   51.1468 C.2    59  UNL59       0.0000
   4499 C         -15.1467   35.9077   40.5163 C.3     1  UNL1        0.0000
   4500 N         -15.0916   35.3089   41.7545 N.3     1  UNL1        0.0000
   4501 N         -10.7257   22.1475   49.7587 N.pl3  59  UNL59       0.0000
   4502 N          -9.3361   26.5675   46.8819 N.pl3   1  UNL1        0.0000
   4503 N         -11.2332   17.8309   48.5288 N.pl3   1  UNL1        0.0000
   4504 O         -10.0788   26.8558   44.3148 O.3     1  UNL1        0.0000
   4505 O         -20.5026   23.6212   47.2049 O.3     1  UNL1        0.0000
   4506 O         -13.2524   19.4883   48.9266 O.3     1  UNL1        0.0000
   4507 O         -16.7051   31.9368   42.6170 O.3     1  UNL1        0.0000
   4508 O         -15.8688   30.5499   44.2030 O.3     1  UNL1        0.0000
   4509 O         -14.8043   19.7323   47.3000 O.3     1  UNL1        0.0000
   4510 O          -8.4906   26.5314   42.7372 O.3     1  UNL1        0.0000
   4511 O         -21.3136   25.0084   48.8029 O.3     1  UNL1        0.0000
   4512 O         -11.1631   26.2766   41.7382 O.3     1  UNL1        0.0000
   4513 O         -18.8094   24.1352   49.3033 O.3     1  UNL1        0.0000
   4514 O         -10.2244   28.5639   42.1882 O.3     1  UNL1        0.0000
   4515 O         -20.5615   22.4105   49.7959 O.3     1  UNL1        0.0000
   4516 O         -15.9550   19.2026   49.8907 O.3     1  UNL1        0.0000
   4517 O         -14.1866   31.0980   42.1188 O.3     1  UNL1        0.0000
   4518 O         -15.0011   21.4640   49.4265 O.3     1  UNL1        0.0000
   4519 O         -15.8928   29.3409   41.6013 O.3     1  UNL1        0.0000
   4520 O         -13.5838   18.3483   51.1927 O.3     1  UNL1        0.0000
   4521 O         -15.3363   33.0216   40.3447 O.2     1  UNL1        0.0000
   4522 O         -12.7817   21.1365   51.1876 O.3     1  UNL1        0.0000
   4523 O         -17.5723   31.1859   40.2847 O.3     1  UNL1        0.0000
   4524 O          -8.0435   28.2111   40.3309 O.3     1  UNL1        0.0000
   4525 O         -22.1978   24.2507   51.1187 O.3     1  UNL1        0.0000
   4526 O          -8.8390   25.4567   40.3603 O.3     1  UNL1        0.0000
   4527 O         -19.9296   26.0330   51.1999 O.3     1  UNL1        0.0000
   4528 O         -12.9714   28.6680   42.2393 O.3     1  UNL1        0.0000
   4529 O         -17.6733   21.6642   49.2203 O.3     1  UNL1        0.0000
   4530 O         -10.5172   27.4429   39.3065 O.3     1  UNL1        0.0000
   4531 O         -15.0849   30.5450   39.1397 O.3     1  UNL1        0.0000
   4532 H         -13.8863   23.3562   47.4806 H       1  UNL1        0.0000
   4533 H         -17.7855   17.6684   46.0280 H       1  UNL1        0.0000
   4534 H         -13.0507   32.4380   44.7247 H      59  UNL59       0.0000
   4535 H         -12.7662   25.1137   46.0750 H       1  UNL1        0.0000
   4536 H         -17.6820   25.3041   46.8773 H       1  UNL1        0.0000
   4537 H         -21.2365   20.2280   45.7938 H       1  UNL1        0.0000
   4538 H         -16.3357   23.4580   47.8432 H       1  UNL1        0.0000
   4539 H         -16.5553   27.0711   45.4986 H       1  UNL1        0.0000
   4540 H         -11.9685   30.2421   44.3331 H      59  UNL59       0.0000
   4541 H         -25.5888   30.4347   44.8694 H      17  UNL17       0.0000
   4542 C         -14.5970   26.1936   45.7118 C.ar    1  UNL1        0.0000
   4543 C         -15.8460   24.2293   47.2500 C.ar    1  UNL1        0.0000
   4544 C         -11.4005   31.0469   44.8005 C.2    59  UNL59       0.0000
   4545 C         -19.4393   19.0516   45.9775 C.ar    1  UNL1        0.0000
   4546 C         -15.9846   26.2570   45.9403 C.ar    1  UNL1        0.0000
   4547 C         -14.4623   24.1706   47.0433 C.ar    1  UNL1        0.0000
   4548 C         -12.0144   32.2857   45.0226 C.3    59  UNL59       0.0000
   4549 C         -18.8216   17.8120   45.7285 C.ar    1  UNL1        0.0000
   4550 C         -10.0627   30.8382   45.1558 C.2    59  UNL59       0.0000
   4551 C         -20.7771   19.2620   45.5948 C.ar    1  UNL1        0.0000
   4552 C         -13.8363   25.1496   46.2689 C.ar    1  UNL1        0.0000
   4553 C         -16.6073   25.2706   46.7047 C.ar    1  UNL1        0.0000
   4554 O         -12.7161   27.0509   44.5205 O.3     1  UNL1        0.0000
   4555 O         -19.3364   21.1770   47.0533 O.3     1  UNL1        0.0000
   4556 O         -17.5151   19.8536   47.1290 O.3     1  UNL1        0.0000
   4557 O         -14.6791   28.1425   44.3540 O.3     1  UNL1        0.0000
   4558 N         -11.4788   32.5590   64.3070 N.pl3  59  UNL59       0.0000
   4559 N         -11.0041   31.7796   66.2920 N.pl3  59  UNL59       0.0000
   4560 C         -10.8000   31.3639   64.1230 C.2    59  UNL59       0.0000
   4561 C         -10.4994   30.8788   65.3696 C.2    59  UNL59       0.0000
   4562 C          -9.7029   32.7291   68.1809 C.3    59  UNL59       0.0000
   4563 C         -11.9714   33.4436   63.2435 C.3    59  UNL59       0.0000
   4564 C         -11.5985   32.7880   65.6268 C.3    59  UNL59       0.0000
   4565 C         -10.7894   31.7432   67.7571 C.3    59  UNL59       0.0000
   4566 H         -10.5679   30.9679   63.1422 H      59  UNL59       0.0000
   4567 H          -9.9812   29.9775   65.6738 H      59  UNL59       0.0000
   4568 H          -8.7482   32.4998   67.6906 H      59  UNL59       0.0000
   4569 H         -11.1326   33.7276   62.5990 H      59  UNL59       0.0000
   4570 H          -9.9808   33.7631   67.9403 H      59  UNL59       0.0000
   4571 H         -12.7308   32.9048   62.6650 H      59  UNL59       0.0000
   4572 H          -9.5580   32.6607   69.2674 H      59  UNL59       0.0000
   4573 H         -10.5031   30.7122   68.0045 H      59  UNL59       0.0000
   4574 H         -12.4137   34.3326   63.7037 H      59  UNL59       0.0000
   4575 H         -12.0982   33.6370   66.0764 H      59  UNL59       0.0000
   4576 H         -11.7572   31.9486   68.2306 H      59  UNL59       0.0000
   4577 TI         29.1434    1.1152   11.4255 Ti      1  UNL1        0.0000
   4578 TI         39.9739    3.9964    2.0607 Ti      1  UNL1        0.0000
   4579 TI         33.2401   -2.8210    9.6056 Ti      1  UNL1        0.0000
   4580 TI         34.7513    6.3412    3.8325 Ti      1  UNL1        0.0000
   4581 TI         33.7527    8.0195    1.9281 Ti      1  UNL1        0.0000
   4582 TI         35.1283   -3.0753   11.5589 Ti      1  UNL1        0.0000
   4583 TI         30.0926   -0.6207    9.5341 Ti      1  UNL1        0.0000
   4584 TI         37.9861    4.2990    3.9082 Ti      1  UNL1        0.0000
   4585 H          29.6453    5.0123   11.2061 H       1  UNL1        0.0000
   4586 H          40.7827    0.0904    2.3814 H       1  UNL1        0.0000
   4587 H          25.1835    0.3586   11.0431 H       1  UNL1        0.0000
   4588 H          43.3561    6.0007    2.2614 H       1  UNL1        0.0000
   4589 H          36.1039   -7.1098   11.1730 H       1  UNL1        0.0000
   4590 H          29.6942    7.4296    2.2502 H       1  UNL1        0.0000
   4591 H          34.2472    6.3827    0.0551 H       1  UNL1        0.0000
   4592 H          38.0984    3.7538    0.3608 H       1  UNL1        0.0000
   4593 H          35.6382   -3.7424    6.0478 H       1  UNL1        0.0000
   4594 H          33.0279    8.1782    7.4515 H       1  UNL1        0.0000
   4595 H          26.0200    2.7680    9.1781 H       1  UNL1        0.0000
   4596 H          42.7287    1.9121    4.3667 H       1  UNL1        0.0000
   4597 H          28.3211    1.3205    5.8443 H       1  UNL1        0.0000
   4598 H          30.6527    9.8473    4.2814 H       1  UNL1        0.0000
   4599 H          34.1450   11.1223    2.7836 H       1  UNL1        0.0000
   4600 H          40.6249   -1.9284    3.5839 H      61  UNL61       0.0000
   4601 H          36.8439    6.0213    2.4939 H       1  UNL1        0.0000
   4602 H          32.1594   -0.9726   10.8992 H       1  UNL1        0.0000
   4603 H          39.3631   -1.1405    9.9486 H       1  UNL1        0.0000
   4604 H          37.8819   -1.6095   10.6959 H       1  UNL1        0.0000
   4605 H          39.9372    3.2932    8.8497 H       1  UNL1        0.0000
   4606 H          39.3675    3.6518    7.2311 H       1  UNL1        0.0000
   4607 H          38.8743   -6.0953    9.7586 H       1  UNL1        0.0000
   4608 H          37.5951   -4.9947   10.2159 H       1  UNL1        0.0000
   4609 C          40.5519    3.2552    4.9243 C.3     1  UNL1        0.0000
   4610 C          28.1829    1.3766    8.5785 C.3     1  UNL1        0.0000
   4611 C          35.8206   -3.8317    8.6808 C.3     1  UNL1        0.0000
   4612 C          32.8152    8.3117    4.7919 C.3     1  UNL1        0.0000
   4613 C          41.4480    2.6509    5.9194 C.ar    1  UNL1        0.0000
   4614 C          27.2510    2.0016    7.6015 C.ar    1  UNL1        0.0000
   4615 C          36.7608   -4.4460    7.7336 C.2     1  UNL1        0.0000
   4616 C          31.9254    8.9585    5.7917 C.ar    1  UNL1        0.0000
   4617 C          41.1992    2.7258    7.3259 C.ar    1  UNL1        0.0000
   4618 C          27.4674    1.8817    6.2134 C.ar    1  UNL1        0.0000
   4619 C          37.8903   -5.2063    8.1867 C.2     1  UNL1        0.0000
   4620 C          30.8307    9.7314    5.3467 C.ar    1  UNL1        0.0000
   4621 C          32.1799    8.7877    7.1466 C.ar    1  UNL1        0.0000
   4622 C          36.5131   -4.3139    6.3497 C.3     1  UNL1        0.0000
   4623 C          42.5816    1.9519    5.4437 C.ar    1  UNL1        0.0000
   4624 C          26.1508    2.6940    8.1001 C.ar    1  UNL1        0.0000
   4625 C          40.7637    0.1695    0.2373 C.2     1  UNL1        0.0000
   4626 C          34.2940   11.9611    0.2623 C.2     1  UNL1        0.0000
   4627 C          43.2482    5.9326    0.1113 C.2     1  UNL1        0.0000
   4628 C          29.8898    7.4750    0.0919 C.2     1  UNL1        0.0000
   4629 C          35.4980    3.9980    5.7971 C.3     1  UNL1        0.0000
   4630 C          30.7419   -3.0964    7.7153 C.2     1  UNL1        0.0000
   4631 C          40.6279    1.6243    0.2141 C.2     1  UNL1        0.0000
   4632 C          34.2012   10.5275    0.2248 C.2     1  UNL1        0.0000
   4633 C          41.9503    5.3157    0.1582 C.2     1  UNL1        0.0000
   4634 C          31.2921    7.8894    0.1164 C.2     1  UNL1        0.0000
   4635 C          40.8031   -0.4997    1.4670 C.3     1  UNL1        0.0000
   4636 C          29.6562    5.6007   12.1200 C.ar    1  UNL1        0.0000
   4637 C          43.9035    6.2074    1.3453 C.2     1  UNL1        0.0000
   4638 C          24.6220    0.1792   11.9584 C.ar    1  UNL1        0.0000
   4639 C          39.3078   -0.8651   11.9729 C.ar    1  UNL1        0.0000
   4640 C          29.1926    7.2446    1.3044 C.2     1  UNL1        0.0000
   4641 C          36.1456   -7.6370   12.1221 C.3     1  UNL1        0.0000
   4642 C          34.3078   12.7122    1.4916 C.2     1  UNL1        0.0000
   4643 N          34.3628   12.1134    2.7298 N.pl3   1  UNL1        0.0000
   4644 N          38.7288   -1.0480   10.7340 N.pl3   1  UNL1        0.0000
   4645 N          40.1183    3.3720    7.8572 N.pl3   1  UNL1        0.0000
   4646 N          38.2213   -5.3646    9.5041 N.pl3   1  UNL1        0.0000
   4647 O          39.3756    3.6603    5.2900 O.3     1  UNL1        0.0000
   4648 O          28.9519    0.4258    8.1802 O.3     1  UNL1        0.0000
   4649 O          36.2021   -3.7072    9.9019 O.3     1  UNL1        0.0000
   4650 O          32.7493    8.7413    3.5923 O.3     1  UNL1        0.0000
   4651 O          33.5857    7.3545    5.1783 O.3     1  UNL1        0.0000
   4652 O          34.6502   -3.4632    8.2753 O.3     1  UNL1        0.0000
   4653 O          40.9638    3.3360    3.7125 O.3     1  UNL1        0.0000
   4654 O          28.1409    1.8129    9.7782 O.3     1  UNL1        0.0000
   4655 O          38.2913    3.0811    2.7135 O.3     1  UNL1        0.0000
   4656 O          30.6451    0.9397   10.2786 O.3     1  UNL1        0.0000
   4657 O          39.2301    5.3684    3.1635 O.3     1  UNL1        0.0000
   4658 O          28.8929   -0.7850   10.7712 O.3     1  UNL1        0.0000
   4659 O          33.4994   -3.9929   10.8660 O.3     1  UNL1        0.0000
   4660 O          35.2679    7.9025    3.0940 O.3     1  UNL1        0.0000
   4661 O          34.4534   -1.7314   10.4018 O.3     1  UNL1        0.0000
   4662 O          33.5616    6.1454    2.5766 O.3     1  UNL1        0.0000
   4663 O          35.8707   -4.8472   12.1680 O.2     1  UNL1        0.0000
   4664 O          34.1181    9.8261    1.3200 O.2     1  UNL1        0.0000
   4665 O          36.6728   -2.0590   12.1629 O.3     1  UNL1        0.0000
   4666 O          31.8822    7.9904    1.2600 O.2     1  UNL1        0.0000
   4667 O          41.4110    5.0156    1.3062 O.2     1  UNL1        0.0000
   4668 O          27.2567    1.0552   12.0940 O.3     1  UNL1        0.0000
   4669 O          40.6154    2.2612    1.3356 O.2     1  UNL1        0.0000
   4670 O          29.5249    2.8375   12.1752 O.3     1  UNL1        0.0000
   4671 O          36.4831    5.4725    3.2146 O.3     1  UNL1        0.0000
   4672 O          31.7812   -1.5313   10.1956 O.3     1  UNL1        0.0000
   4673 O          38.9372    4.2474    0.2818 O.3     1  UNL1        0.0000
   4674 O          34.3696    7.3495    0.1150 O.3     1  UNL1        0.0000
   4675 H          35.5682    0.1607    8.4559 H       1  UNL1        0.0000
   4676 H          31.6690   -5.5271    7.0033 H       1  UNL1        0.0000
   4677 H          36.4037    9.2426    5.7000 H       1  UNL1        0.0000
   4678 H          36.6883    1.9183    7.0503 H       1  UNL1        0.0000
   4679 H          31.7724    2.1086    7.8526 H       1  UNL1        0.0000
   4680 H          28.2179   -2.9674    6.7691 H       1  UNL1        0.0000
   4681 H          33.1188    0.2625    8.8185 H       1  UNL1        0.0000
   4682 H          32.8991    3.8756    6.4739 H       1  UNL1        0.0000
   4683 H          37.4860    7.0466    5.3084 H       1  UNL1        0.0000
   4684 H          23.8656    7.2392    5.8447 H       1  UNL1        0.0000
   4685 C          34.8575    2.9981    6.6871 C.ar    1  UNL1        0.0000
   4686 C          33.6085    1.0338    8.2252 C.ar    1  UNL1        0.0000
   4687 C          38.0540    7.8514    5.7758 C.ar    1  UNL1        0.0000
   4688 C          30.0151   -4.1438    6.9528 C.2     1  UNL1        0.0000
   4689 C          33.4699    3.0615    6.9156 C.ar    1  UNL1        0.0000
   4690 C          34.9922    0.9751    8.0186 C.ar    1  UNL1        0.0000
   4691 C          37.4400    9.0902    5.9979 C.ar    1  UNL1        0.0000
   4692 C          30.6329   -5.3835    6.7038 C.3     1  UNL1        0.0000
   4693 C          39.3918    7.6427    6.1311 C.ar    1  UNL1        0.0000
   4694 C          28.6774   -3.9335    6.5701 C.3     1  UNL1        0.0000
   4695 C          35.6182    1.9542    7.2442 C.ar    1  UNL1        0.0000
   4696 C          32.8472    2.0751    7.6800 C.ar    1  UNL1        0.0000
   4697 O          36.7384    3.8554    5.4958 O.3     1  UNL1        0.0000
   4698 O          30.1180   -2.0184    8.0285 O.2     1  UNL1        0.0000
   4699 O          31.9394   -3.3419    8.1043 O.2     1  UNL1        0.0000
   4700 O          34.7753    4.9470    5.3293 O.3     1  UNL1        0.0000
   4701 N          37.9757    9.3635   25.2823 N.pl3  59  UNL59       0.0000
   4702 N          38.4504    8.5841   27.2673 N.pl3  59  UNL59       0.0000
   4703 C          38.6545    8.1684   25.0983 C.2    59  UNL59       0.0000
   4704 C          38.9551    7.6833   26.3449 C.2    59  UNL59       0.0000
   4705 C          39.7515    9.5336   29.1562 C.3    59  UNL59       0.0000
   4706 C          37.4830   10.2481   24.2188 C.3    59  UNL59       0.0000
   4707 C          37.8560    9.5925   26.6021 C.3    59  UNL59       0.0000
   4708 C          38.6651    8.5477   28.7324 C.3    59  UNL59       0.0000
   4709 H          38.8865    7.7724   24.1174 H      59  UNL59       0.0000
   4710 H          39.4732    6.7820   26.6491 H      59  UNL59       0.0000
   4711 H          40.7063    9.3043   28.6659 H      59  UNL59       0.0000
   4712 H          38.3218   10.5321   23.5743 H      59  UNL59       0.0000
   4713 H          39.4737   10.5676   28.9156 H      59  UNL59       0.0000
   4714 H          36.7236    9.7093   23.6403 H      59  UNL59       0.0000
   4715 H          39.8965    9.4653   30.2427 H      59  UNL59       0.0000
   4716 H          38.9514    7.5167   28.9798 H      59  UNL59       0.0000
   4717 H          37.0407   11.1371   24.6790 H      59  UNL59       0.0000
   4718 H          37.3563   10.4415   27.0517 H      59  UNL59       0.0000
   4719 H          37.6973    8.7531   29.2059 H      59  UNL59       0.0000
   4720 TI         24.5088   -5.9512   24.5201 Ti      1  UNL1        0.0000
   4721 TI         35.3393   -3.0700   15.1553 Ti      1  UNL1        0.0000
   4722 TI         28.6055   -9.8874   22.7002 Ti      1  UNL1        0.0000
   4723 TI         30.1167   -0.7253   16.9271 Ti      1  UNL1        0.0000
   4724 TI         29.1181    0.9530   15.0227 Ti      1  UNL1        0.0000
   4725 TI         30.4937  -10.1417   24.6535 Ti      1  UNL1        0.0000
   4726 TI         25.4580   -7.6871   22.6287 Ti      1  UNL1        0.0000
   4727 TI         33.3514   -2.7674   17.0028 Ti      1  UNL1        0.0000
   4728 H          25.0107   -2.0541   24.3007 H       1  UNL1        0.0000
   4729 H          36.1480   -6.9760   15.4760 H       1  UNL1        0.0000
   4730 H          20.5489   -6.7078   24.1377 H       1  UNL1        0.0000
   4731 H          38.7214   -1.0657   15.3560 H       1  UNL1        0.0000
   4732 H          31.4693  -14.1763   24.2676 H       1  UNL1        0.0000
   4733 H          25.0596    0.3631   15.3448 H       1  UNL1        0.0000
   4734 H          29.6126   -0.6838   13.1497 H       1  UNL1        0.0000
   4735 H          33.4637   -3.3127   13.4554 H       1  UNL1        0.0000
   4736 H          31.0036  -10.8089   19.1424 H       1  UNL1        0.0000
   4737 H          28.3932    1.1118   20.5461 H       1  UNL1        0.0000
   4738 H          21.3854   -4.2985   22.2728 H       1  UNL1        0.0000
   4739 H          38.0940   -5.1543   17.4613 H       1  UNL1        0.0000
   4740 H          23.6865   -5.7459   18.9389 H       1  UNL1        0.0000
   4741 H          26.0180    2.7809   17.3760 H       1  UNL1        0.0000
   4742 H          29.5103    4.0559   15.8782 H       1  UNL1        0.0000
   4743 H          35.9902   -8.9949   16.6785 H      62  UNL62       0.0000
   4744 H          32.2093   -1.0451   15.5885 H       1  UNL1        0.0000
   4745 H          27.5248   -8.0390   23.9938 H       1  UNL1        0.0000
   4746 H          34.7284   -8.2069   23.0432 H       1  UNL1        0.0000
   4747 H          33.2473   -8.6760   23.7905 H       1  UNL1        0.0000
   4748 H          35.3025   -3.7733   21.9443 H       1  UNL1        0.0000
   4749 H          34.7328   -3.4147   20.3257 H       1  UNL1        0.0000
   4750 H          34.2396  -13.1617   22.8532 H       1  UNL1        0.0000
   4751 H          32.9605  -12.0611   23.3106 H       1  UNL1        0.0000
   4752 C          35.9173   -3.8112   18.0189 C.3     1  UNL1        0.0000
   4753 C          23.5482   -5.6898   21.6731 C.3     1  UNL1        0.0000
   4754 C          31.1860  -10.8981   21.7754 C.3     1  UNL1        0.0000
   4755 C          28.1806    1.2452   17.8865 C.3     1  UNL1        0.0000
   4756 C          36.8133   -4.4155   19.0141 C.ar    1  UNL1        0.0000
   4757 C          22.6163   -5.0648   20.6961 C.ar    1  UNL1        0.0000
   4758 C          32.1262  -11.5125   20.8283 C.2     1  UNL1        0.0000
   4759 C          27.2907    1.8920   18.8863 C.ar    1  UNL1        0.0000
   4760 C          36.5646   -4.3406   20.4205 C.ar    1  UNL1        0.0000
   4761 C          22.8327   -5.1848   19.3080 C.ar    1  UNL1        0.0000
   4762 C          33.2556  -12.2728   21.2813 C.2     1  UNL1        0.0000
   4763 C          26.1960    2.6650   18.4414 C.ar    1  UNL1        0.0000
   4764 C          27.5452    1.7213   20.2412 C.ar    1  UNL1        0.0000
   4765 C          31.8785  -11.3803   19.4443 C.3     1  UNL1        0.0000
   4766 C          37.9470   -5.1145   18.5383 C.ar    1  UNL1        0.0000
   4767 C          21.5162   -4.3724   21.1947 C.ar    1  UNL1        0.0000
   4768 C          36.1291   -6.8970   13.3319 C.2     1  UNL1        0.0000
   4769 C          29.6593    4.8946   13.3569 C.ar    1  UNL1        0.0000
   4770 C          38.6135   -1.1339   13.2059 C.ar    1  UNL1        0.0000
   4771 C          25.2552    0.4086   13.1865 C.ar    1  UNL1        0.0000
   4772 C          30.8634   -3.0684   18.8917 C.3     1  UNL1        0.0000
   4773 C          26.1073  -10.1628   20.8099 C.2     1  UNL1        0.0000
   4774 C          35.9932   -5.4421   13.3087 C.2     1  UNL1        0.0000
   4775 C          29.5666    3.4611   13.3194 C.3     1  UNL1        0.0000
   4776 C          37.3157   -1.7507   13.2528 C.3     1  UNL1        0.0000
   4777 C          26.6575    0.8229   13.2110 C.3     1  UNL1        0.0000
   4778 C          36.1684   -7.5661   14.5616 C.3     1  UNL1        0.0000
   4779 C          25.0216   -1.4657   25.2146 C.ar    1  UNL1        0.0000
   4780 C          39.2688   -0.8591   14.4399 C.ar    1  UNL1        0.0000
   4781 C          19.9874   -6.8872   25.0530 C.ar    1  UNL1        0.0000
   4782 C          34.6732   -7.9316   25.0675 C.ar    1  UNL1        0.0000
   4783 C          24.5580    0.1782   14.3990 C.ar    1  UNL1        0.0000
   4784 C          31.5109  -14.7034   25.2167 C.3     1  UNL1        0.0000
   4785 C          29.6731    5.6458   14.5862 C.ar    1  UNL1        0.0000
   4786 N          29.7282    5.0470   15.8244 N.pl3   1  UNL1        0.0000
   4787 N          34.0941   -8.1144   23.8286 N.pl3   1  UNL1        0.0000
   4788 N          35.4837   -3.6944   20.9518 N.pl3   1  UNL1        0.0000
   4789 N          33.5866  -12.4310   22.5987 N.pl3   1  UNL1        0.0000
   4790 O          34.7410   -3.4061   18.3847 O.3     1  UNL1        0.0000
   4791 O          24.3172   -6.6407   21.2748 O.3     1  UNL1        0.0000
   4792 O          31.5674  -10.7736   22.9966 O.3     1  UNL1        0.0000
   4793 O          28.1147    1.6749   16.6869 O.3     1  UNL1        0.0000
   4794 O          28.9510    0.2880   18.2729 O.3     1  UNL1        0.0000
   4795 O          30.0156  -10.5297   21.3699 O.3     1  UNL1        0.0000
   4796 O          36.3292   -3.7305   16.8071 O.3     1  UNL1        0.0000
   4797 O          23.5062   -5.2536   22.8728 O.3     1  UNL1        0.0000
   4798 O          33.6567   -3.9853   15.8081 O.3     1  UNL1        0.0000
   4799 O          26.0105   -6.1267   23.3732 O.3     1  UNL1        0.0000
   4800 O          34.5955   -1.6981   16.2581 O.3     1  UNL1        0.0000
   4801 O          24.2583   -7.8514   23.8659 O.3     1  UNL1        0.0000
   4802 O          28.8648  -11.0594   23.9606 O.3     1  UNL1        0.0000
   4803 O          30.6332    0.8360   16.1887 O.3     1  UNL1        0.0000
   4804 O          29.8187   -8.7979   23.4964 O.3     1  UNL1        0.0000
   4805 O          28.9270   -0.9211   15.6712 O.3     1  UNL1        0.0000
   4806 O          31.2360  -11.9136   25.2626 O.2     1  UNL1        0.0000
   4807 O          29.4835    2.7597   14.4146 O.3     1  UNL1        0.0000
   4808 O          32.0382   -9.1254   25.2575 O.3     1  UNL1        0.0000
   4809 O          27.2475    0.9239   14.3546 O.3     1  UNL1        0.0000
   4810 O          36.7763   -2.0509   14.4008 O.3     1  UNL1        0.0000
   4811 O          22.6220   -6.0113   25.1886 O.3     1  UNL1        0.0000
   4812 O          35.9808   -4.8052   14.4302 O.2     1  UNL1        0.0000
   4813 O          24.8902   -4.2289   25.2699 O.3     1  UNL1        0.0000
   4814 O          31.8485   -1.5939   16.3092 O.3     1  UNL1        0.0000
   4815 O          27.1465   -8.5977   23.2902 O.3     1  UNL1        0.0000
   4816 O          34.3026   -2.8190   13.3764 O.3     1  UNL1        0.0000
   4817 O          29.7349    0.2830   13.2096 O.3     1  UNL1        0.0000
   4818 H          30.9335   -6.9058   21.5505 H       1  UNL1        0.0000
   4819 H          27.0343  -12.5936   20.0979 H       1  UNL1        0.0000
   4820 H          31.7691    2.1761   18.7946 H       1  UNL1        0.0000
   4821 H          32.0537   -5.1482   20.1449 H       1  UNL1        0.0000
   4822 H          27.1378   -4.9578   20.9472 H       1  UNL1        0.0000
   4823 H          23.5833  -10.0339   19.8637 H       1  UNL1        0.0000
   4824 H          28.4842   -6.8040   21.9131 H       1  UNL1        0.0000
   4825 H          28.2645   -3.1908   19.5685 H       1  UNL1        0.0000
   4826 H          32.8514   -0.0199   18.4030 H       1  UNL1        0.0000
   4827 H          19.2310    0.1728   18.9394 H       1  UNL1        0.0000
   4828 C          30.2228   -4.0683   19.7817 C.ar    1  UNL1        0.0000
   4829 C          28.9738   -6.0326   21.3199 C.ar    1  UNL1        0.0000
   4830 C          33.4193    0.7850   18.8704 C.ar    1  UNL1        0.0000
   4831 C          25.3805  -11.2103   20.0474 C.2     1  UNL1        0.0000
   4832 C          28.8352   -4.0049   20.0102 C.ar    1  UNL1        0.0000
   4833 C          30.3576   -6.0914   21.1132 C.ar    1  UNL1        0.0000
   4834 C          32.8054    2.0237   19.0925 C.ar    1  UNL1        0.0000
   4835 C          25.9982  -12.4500   19.7984 C.3     1  UNL1        0.0000
   4836 C          34.7571    0.5762   19.2257 C.ar    1  UNL1        0.0000
   4837 C          24.0427  -10.9999   19.6648 C.3     1  UNL1        0.0000
   4838 C          30.9835   -5.1123   20.3388 C.ar    1  UNL1        0.0000
   4839 C          28.2125   -4.9914   20.7746 C.ar    1  UNL1        0.0000
   4840 O          32.1038   -3.2110   18.5904 O.3     1  UNL1        0.0000
   4841 O          25.4834   -9.0849   21.1232 O.2     1  UNL1        0.0000
   4842 O          27.3047  -10.4083   21.1989 O.2     1  UNL1        0.0000
   4843 O          30.1407   -2.1194   18.4240 O.3     1  UNL1        0.0000
   4844 N          33.3410    2.2971   38.3769 N.pl3  59  UNL59       0.0000
   4845 N          33.8157    1.5176   40.3619 N.pl3  59  UNL59       0.0000
   4846 C          34.0198    1.1020   38.1929 C.2    59  UNL59       0.0000
   4847 C          34.3204    0.6169   39.4395 C.2    59  UNL59       0.0000
   4848 C          35.1169    2.4672   42.2508 C.3    59  UNL59       0.0000
   4849 C          32.8484    3.1817   37.3134 C.3    59  UNL59       0.0000
   4850 C          33.2213    2.5260   39.6967 C.3    59  UNL59       0.0000
   4851 C          34.0304    1.4813   41.8270 C.3    59  UNL59       0.0000
   4852 H          34.2519    0.7059   37.2121 H      59  UNL59       0.0000
   4853 H          34.8386   -0.2844   39.7437 H      59  UNL59       0.0000
   4854 H          36.0716    2.2378   41.7606 H      59  UNL59       0.0000
   4855 H          33.6872    3.4657   36.6689 H      59  UNL59       0.0000
   4856 H          34.8390    3.5012   42.0102 H      59  UNL59       0.0000
   4857 H          32.0890    2.6429   36.7349 H      59  UNL59       0.0000
   4858 H          35.2618    2.3988   43.3373 H      59  UNL59       0.0000
   4859 H          34.3167    0.4502   42.0745 H      59  UNL59       0.0000
   4860 H          32.4061    4.0707   37.7736 H      59  UNL59       0.0000
   4861 H          32.7216    3.3750   40.1463 H      59  UNL59       0.0000
   4862 H          33.0626    1.6866   42.3005 H      59  UNL59       0.0000
   4863 TI         19.8741  -13.0176   37.6148 Ti      1  UNL1        0.0000
   4864 TI         30.7046  -10.1364   28.2499 Ti      1  UNL1        0.0000
   4865 TI         23.9708  -16.9538   35.7948 Ti      1  UNL1        0.0000
   4866 TI         25.4820   -7.7917   30.0217 Ti      1  UNL1        0.0000
   4867 TI         24.4834   -6.1134   28.1174 Ti      1  UNL1        0.0000
   4868 TI         25.8590  -17.2082   37.7481 Ti      1  UNL1        0.0000
   4869 TI         20.8233  -14.7535   35.7233 Ti      1  UNL1        0.0000
   4870 TI         28.7168   -9.8339   30.0974 Ti      1  UNL1        0.0000
   4871 H          20.3760   -9.1206   37.3953 H       1  UNL1        0.0000
   4872 H          31.5134  -14.0425   28.5706 H       1  UNL1        0.0000
   4873 H          15.9142  -13.7743   37.2323 H       1  UNL1        0.0000
   4874 H          34.0868   -8.1321   28.4506 H       1  UNL1        0.0000
   4875 H          26.8346  -21.2427   37.3622 H       1  UNL1        0.0000
   4876 H          20.4249   -6.7033   28.4394 H       1  UNL1        0.0000
   4877 H          24.9779   -7.7502   26.2443 H       1  UNL1        0.0000
   4878 H          28.8291  -10.3791   26.5500 H       1  UNL1        0.0000
   4879 H          26.3689  -17.8753   32.2370 H       1  UNL1        0.0000
   4880 H          23.7586   -5.9547   33.6407 H       1  UNL1        0.0000
   4881 H          16.7507  -11.3649   35.3674 H       1  UNL1        0.0000
   4882 H          33.4594  -12.2208   30.5559 H       1  UNL1        0.0000
   4883 H          19.0518  -12.8123   32.0335 H       1  UNL1        0.0000
   4884 H          21.3834   -4.2855   30.4706 H       1  UNL1        0.0000
   4885 H          24.8757   -3.0106   28.9728 H       1  UNL1        0.0000
   4886 H          31.3556  -16.0613   29.7731 H      63  UNL63       0.0000
   4887 H          27.5746   -8.1116   28.6831 H       1  UNL1        0.0000
   4888 H          22.8901  -15.1054   37.0884 H       1  UNL1        0.0000
   4889 H          30.0938  -15.2733   36.1378 H       1  UNL1        0.0000
   4890 H          28.6127  -15.7424   36.8851 H       1  UNL1        0.0000
   4891 H          30.6679  -10.8397   35.0389 H       1  UNL1        0.0000
   4892 H          30.0982  -10.4811   33.4204 H       1  UNL1        0.0000
   4893 H          29.6050  -20.2282   35.9478 H       1  UNL1        0.0000
   4894 H          28.3258  -19.1276   36.4052 H       1  UNL1        0.0000
   4895 C          31.2827  -10.8777   31.1135 C.3     1  UNL1        0.0000
   4896 C          18.9136  -12.7563   34.7677 C.3     1  UNL1        0.0000
   4897 C          26.5513  -17.9645   34.8701 C.3     1  UNL1        0.0000
   4898 C          23.5459   -5.8212   30.9811 C.3     1  UNL1        0.0000
   4899 C          32.1787  -11.4820   32.1087 C.ar    1  UNL1        0.0000
   4900 C          17.9817  -12.1312   33.7907 C.ar    1  UNL1        0.0000
   4901 C          27.4915  -18.5789   33.9229 C.2     1  UNL1        0.0000
   4902 C          22.6561   -5.1744   31.9809 C.ar    1  UNL1        0.0000
   4903 C          31.9299  -11.4071   33.5151 C.ar    1  UNL1        0.0000
   4904 C          18.1981  -12.2512   32.4027 C.ar    1  UNL1        0.0000
   4905 C          28.6210  -19.3392   34.3759 C.2     1  UNL1        0.0000
   4906 C          21.5614   -4.4014   31.5360 C.ar    1  UNL1        0.0000
   4907 C          22.9106   -5.3452   33.3358 C.ar    1  UNL1        0.0000
   4908 C          27.2438  -18.4468   32.5389 C.3     1  UNL1        0.0000
   4909 C          33.3124  -12.1810   31.6330 C.ar    1  UNL1        0.0000
   4910 C          16.8815  -11.4388   34.2894 C.ar    1  UNL1        0.0000
   4911 C          31.4944  -13.9634   26.4265 C.2     1  UNL1        0.0000
   4912 C          25.0247   -2.1718   26.4515 C.ar    1  UNL1        0.0000
   4913 C          33.9789   -8.2003   26.3005 C.ar    1  UNL1        0.0000
   4914 C          20.6205   -6.6579   26.2811 C.ar    1  UNL1        0.0000
   4915 C          26.2287  -10.1349   31.9863 C.3     1  UNL1        0.0000
   4916 C          21.4727  -17.2293   33.9045 C.2     1  UNL1        0.0000
   4917 C          31.3586  -12.5086   26.4033 C.2     1  UNL1        0.0000
   4918 C          24.9319   -3.6053   26.4141 C.3     1  UNL1        0.0000
   4919 C          32.6810   -8.8171   26.3474 C.3     1  UNL1        0.0000
   4920 C          22.0228   -6.2435   26.3056 C.3     1  UNL1        0.0000
   4921 C          31.5338  -14.6325   27.6562 C.3     1  UNL1        0.0000
   4922 C          20.3869   -8.5322   38.3092 C.ar    1  UNL1        0.0000
   4923 C          34.6342   -7.9255   27.5345 C.ar    1  UNL1        0.0000
   4924 C          15.3528  -13.9536   38.1477 C.ar    1  UNL1        0.0000
   4925 C          30.0385  -14.9980   38.1622 C.ar    1  UNL1        0.0000
   4926 C          19.9233   -6.8883   27.4936 C.ar    1  UNL1        0.0000
   4927 C          26.8763  -21.7699   38.3113 C.3     1  UNL1        0.0000
   4928 C          25.0385   -1.4206   27.6808 C.ar    1  UNL1        0.0000
   4929 N          25.0935   -2.0195   28.9190 N.pl3   1  UNL1        0.0000
   4930 N          29.4595  -15.1808   36.9232 N.pl3   1  UNL1        0.0000
   4931 N          30.8490  -10.7608   34.0464 N.pl3   1  UNL1        0.0000
   4932 N          28.9520  -19.4974   35.6933 N.pl3   1  UNL1        0.0000
   4933 O          30.1063  -10.4726   31.4793 O.3     1  UNL1        0.0000
   4934 O          19.6826  -13.7071   34.3694 O.3     1  UNL1        0.0000
   4935 O          26.9328  -17.8401   36.0912 O.3     1  UNL1        0.0000
   4936 O          23.4800   -5.3915   29.7815 O.3     1  UNL1        0.0000
   4937 O          24.3164   -6.7784   31.3676 O.3     1  UNL1        0.0000
   4938 O          25.3809  -17.5961   34.4645 O.3     1  UNL1        0.0000
   4939 O          31.6945  -10.7969   29.9017 O.3     1  UNL1        0.0000
   4940 O          18.8716  -12.3200   35.9674 O.3     1  UNL1        0.0000
   4941 O          29.0220  -11.0518   28.9027 O.3     1  UNL1        0.0000
   4942 O          21.3758  -13.1932   36.4678 O.3     1  UNL1        0.0000
   4943 O          29.9608   -8.7645   29.3527 O.3     1  UNL1        0.0000
   4944 O          19.6236  -14.9179   36.9605 O.3     1  UNL1        0.0000
   4945 O          24.2301  -18.1258   37.0552 O.3     1  UNL1        0.0000
   4946 O          25.9986   -6.2304   29.2833 O.3     1  UNL1        0.0000
   4947 O          25.1841  -15.8643   36.5910 O.3     1  UNL1        0.0000
   4948 O          24.2923   -7.9875   28.7658 O.3     1  UNL1        0.0000
   4949 O          26.6014  -18.9800   38.3572 O.2     1  UNL1        0.0000
   4950 O          24.8488   -4.3068   27.5092 O.3     1  UNL1        0.0000
   4951 O          27.4035  -16.1919   38.3521 O.3     1  UNL1        0.0000
   4952 O          22.6129   -6.1425   27.4492 O.3     1  UNL1        0.0000
   4953 O          32.1417   -9.1173   27.4954 O.3     1  UNL1        0.0000
   4954 O          17.9874  -13.0777   38.2832 O.3     1  UNL1        0.0000
   4955 O          31.3461  -11.8716   27.5248 O.2     1  UNL1        0.0000
   4956 O          20.2556  -11.2954   38.3645 O.3     1  UNL1        0.0000
   4957 O          27.2138   -8.6603   29.4038 O.3     1  UNL1        0.0000
   4958 O          22.5119  -15.6641   36.3848 O.3     1  UNL1        0.0000
   4959 O          29.6679   -9.8855   26.4710 O.3     1  UNL1        0.0000
   4960 O          25.1003   -6.7834   26.3042 O.3     1  UNL1        0.0000
   4961 H          26.2989  -13.9722   34.6451 H       1  UNL1        0.0000
   4962 H          22.3997  -19.6600   33.1925 H       1  UNL1        0.0000
   4963 H          27.1344   -4.8903   31.8892 H       1  UNL1        0.0000
   4964 H          27.4190  -12.2146   33.2395 H       1  UNL1        0.0000
   4965 H          22.5031  -12.0242   34.0418 H       1  UNL1        0.0000
   4966 H          18.9486  -17.1003   32.9583 H       1  UNL1        0.0000
   4967 H          23.8495  -13.8704   35.0077 H       1  UNL1        0.0000
   4968 H          23.6298  -10.2573   32.6631 H       1  UNL1        0.0000
   4969 H          28.2167   -7.0863   31.4976 H       1  UNL1        0.0000
   4970 H          14.5963   -6.8936   32.0340 H       1  UNL1        0.0000
   4971 C          25.5882  -11.1347   32.8763 C.ar    1  UNL1        0.0000
   4972 C          24.3392  -13.0991   34.4145 C.ar    1  UNL1        0.0000
   4973 C          28.7847   -6.2815   31.9650 C.ar    1  UNL1        0.0000
   4974 C          20.7458  -18.2767   33.1420 C.2     1  UNL1        0.0000
   4975 C          24.2006  -11.0714   33.1048 C.ar    1  UNL1        0.0000
   4976 C          25.7229  -13.1578   34.2078 C.ar    1  UNL1        0.0000
   4977 C          28.1707   -5.0427   32.1872 C.ar    1  UNL1        0.0000
   4978 C          21.3636  -19.5164   32.8930 C.3     1  UNL1        0.0000
   4979 C          30.1225   -6.4902   32.3203 C.ar    1  UNL1        0.0000
   4980 C          19.4081  -18.0664   32.7594 C.3     1  UNL1        0.0000
   4981 C          26.3489  -12.1787   33.4334 C.ar    1  UNL1        0.0000
   4982 C          23.5779  -12.0578   33.8693 C.ar    1  UNL1        0.0000
   4983 O          27.4691  -10.2774   31.6850 O.3     1  UNL1        0.0000
   4984 O          20.8487  -16.1513   34.2178 O.2     1  UNL1        0.0000
   4985 O          22.6701  -17.4748   34.2936 O.2     1  UNL1        0.0000
   4986 O          25.5060   -9.1858   31.5186 O.3     1  UNL1        0.0000
   4987 N          28.7064   -4.7694   51.4715 N.pl3  59  UNL59       0.0000
   4988 N          29.1811   -5.5488   53.4565 N.pl3  59  UNL59       0.0000
   4989 C          29.3852   -5.9645   51.2875 C.2    59  UNL59       0.0000
   4990 C          29.6858   -6.4495   52.5341 C.2    59  UNL59       0.0000
   4991 C          30.4823   -4.5993   55.3454 C.3    59  UNL59       0.0000
   4992 C          28.2137   -3.8848   50.4080 C.3    59  UNL59       0.0000
   4993 C          28.5867   -4.5404   52.7913 C.3    59  UNL59       0.0000
   4994 C          29.3958   -5.5851   54.9216 C.3    59  UNL59       0.0000
   4995 H          29.6172   -6.3605   50.3067 H      59  UNL59       0.0000
   4996 H          30.2040   -7.3508   52.8383 H      59  UNL59       0.0000
   4997 H          31.4370   -4.8286   54.8552 H      59  UNL59       0.0000
   4998 H          29.0525   -3.6008   49.7635 H      59  UNL59       0.0000
   4999 H          30.2044   -3.5653   55.1048 H      59  UNL59       0.0000
   5000 H          27.4543   -4.4235   49.8295 H      59  UNL59       0.0000
   5001 H          30.6272   -4.6676   56.4319 H      59  UNL59       0.0000
   5002 H          29.6821   -6.6162   55.1691 H      59  UNL59       0.0000
   5003 H          27.7714   -2.9958   50.8682 H      59  UNL59       0.0000
   5004 H          28.0870   -3.6914   53.2410 H      59  UNL59       0.0000
   5005 H          28.4280   -5.3798   55.3951 H      59  UNL59       0.0000
   5006 TI         15.2395  -20.0841   50.7094 Ti      1  UNL1        0.0000
   5007 TI         26.0700  -17.2029   41.3446 Ti      1  UNL1        0.0000
   5008 TI         19.3362  -24.0203   48.8894 Ti      1  UNL1        0.0000
   5009 TI         20.8474  -14.8581   43.1163 Ti      1  UNL1        0.0000
   5010 TI         19.8488  -13.1798   41.2120 Ti      1  UNL1        0.0000
   5011 TI         21.2244  -24.2746   50.8427 Ti      1  UNL1        0.0000
   5012 TI         16.1887  -21.8200   48.8179 Ti      1  UNL1        0.0000
   5013 TI         24.0822  -16.9003   43.1920 Ti      1  UNL1        0.0000
   5014 H          15.7414  -16.1870   50.4899 H      59  UNL59       0.0000
   5015 H          26.8788  -21.1089   41.6652 H       1  UNL1        0.0000
   5016 H          11.2796  -20.8407   50.3269 H      19  UNL19       0.0000
   5017 H          29.4521  -15.1986   41.5452 H       1  UNL1        0.0000
   5018 H          22.2000  -28.3092   50.4568 H      59  UNL59       0.0000
   5019 H          15.7903  -13.7697   41.5340 H       1  UNL1        0.0000
   5020 H          20.3433  -14.8166   39.3389 H       1  UNL1        0.0000
   5021 H          24.1944  -17.4456   39.6446 H       1  UNL1        0.0000
   5022 H          21.7343  -24.9417   45.3316 H       1  UNL1        0.0000
   5023 H          19.1239  -13.0211   46.7353 H       1  UNL1        0.0000
   5024 H          12.1161  -18.4313   48.4620 H       1  UNL1        0.0000
   5025 H          28.8247  -19.2872   43.6506 H       1  UNL1        0.0000
   5026 H          14.4172  -19.8788   45.1281 H       1  UNL1        0.0000
   5027 H          16.7487  -11.3520   43.5652 H       1  UNL1        0.0000
   5028 H          20.2410  -10.0770   42.0674 H       1  UNL1        0.0000
   5029 H          26.7209  -23.1278   42.8677 H      64  UNL64       0.0000
   5030 H          22.9400  -15.1780   41.7777 H       1  UNL1        0.0000
   5031 H          18.2555  -22.1719   50.1830 H       1  UNL1        0.0000
   5032 H          25.4591  -22.3398   49.2324 H      59  UNL59       0.0000
   5033 H          23.9780  -22.8088   49.9797 H      59  UNL59       0.0000
   5034 H          26.0333  -17.9061   48.1335 H       1  UNL1        0.0000
   5035 H          25.4635  -17.5475   46.5150 H       1  UNL1        0.0000
   5036 H          24.9703  -27.2946   49.0424 H       1  UNL1        0.0000
   5037 H          23.6912  -26.1940   49.4998 H       1  UNL1        0.0000
   5038 C          26.6480  -17.9441   44.2081 C.3     1  UNL1        0.0000
   5039 C          14.2790  -19.8227   47.8623 C.3     1  UNL1        0.0000
   5040 C          21.9167  -25.0310   47.9647 C.3     1  UNL1        0.0000
   5041 C          18.9113  -12.8876   44.0757 C.3     1  UNL1        0.0000
   5042 C          27.5440  -18.5484   45.2033 C.ar    1  UNL1        0.0000
   5043 C          13.3470  -19.1977   46.8853 C.ar    1  UNL1        0.0000
   5044 C          22.8569  -25.6453   47.0175 C.2     1  UNL1        0.0000
   5045 C          18.0214  -12.2408   45.0755 C.ar    1  UNL1        0.0000
   5046 C          27.2953  -18.4735   46.6097 C.ar    1  UNL1        0.0000
   5047 C          13.5634  -19.3177   45.4973 C.ar    1  UNL1        0.0000
   5048 C          23.9863  -26.4056   47.4705 C.2     1  UNL1        0.0000
   5049 C          16.9267  -11.4679   44.6306 C.ar    1  UNL1        0.0000
   5050 C          18.2759  -12.4116   46.4304 C.ar    1  UNL1        0.0000
   5051 C          22.6092  -25.5132   45.6335 C.3     1  UNL1        0.0000
   5052 C          28.6777  -19.2474   44.7276 C.ar    1  UNL1        0.0000
   5053 C          12.2469  -18.5053   47.3840 C.ar    1  UNL1        0.0000
   5054 C          26.8598  -21.0298   39.5211 C.2     1  UNL1        0.0000
   5055 C          20.3901   -9.2383   39.5462 C.ar    1  UNL1        0.0000
   5056 C          29.3442  -15.2667   39.3951 C.ar    1  UNL1        0.0000
   5057 C          15.9859  -13.7243   39.3757 C.ar    1  UNL1        0.0000
   5058 C          21.5941  -17.2013   45.0809 C.3     1  UNL1        0.0000
   5059 C          16.8380  -24.2957   46.9991 C.2     1  UNL1        0.0000
   5060 C          26.7239  -19.5750   39.4979 C.2     1  UNL1        0.0000
   5061 C          20.2973  -10.6718   39.5087 C.3     1  UNL1        0.0000
   5062 C          28.0464  -15.8836   39.4420 C.3     1  UNL1        0.0000
   5063 C          17.3882  -13.3100   39.4002 C.3     1  UNL1        0.0000
   5064 C          26.8991  -21.6990   40.7508 C.3     1  UNL1        0.0000
   5065 C          15.7523  -15.5986   51.4038 C.2    59  UNL59       0.0000
   5066 C          29.9995  -14.9919   40.6291 C.ar    1  UNL1        0.0000
   5067 C          10.7181  -21.0201   51.2423 C.2    19  UNL19       0.0000
   5068 C          25.4039  -22.0644   51.2568 C.2    59  UNL59       0.0000
   5069 C          15.2887  -13.9547   40.5882 C.ar    1  UNL1        0.0000
   5070 C          22.2416  -28.8363   51.4059 C.3    65  UNL65       0.0000
   5071 C          20.4038   -8.4871   40.7754 C.ar    1  UNL1        0.0000
   5072 N          20.4589   -9.0859   42.0136 N.pl3   1  UNL1        0.0000
   5073 N          24.8248  -22.2473   50.0178 N.pl3  59  UNL59       0.0000
   5074 N          26.2144  -17.8273   47.1410 N.pl3   1  UNL1        0.0000
   5075 N          24.3173  -26.5639   48.7879 N.pl3   1  UNL1        0.0000
   5076 O          25.4717  -17.5390   44.5739 O.3     1  UNL1        0.0000
   5077 O          15.0479  -20.7736   47.4640 O.3     1  UNL1        0.0000
   5078 O          22.2981  -24.9065   49.1858 O.3     1  UNL1        0.0000
   5079 O          18.8454  -12.4580   42.8761 O.3     1  UNL1        0.0000
   5080 O          19.6817  -13.8448   44.4622 O.3     1  UNL1        0.0000
   5081 O          20.7463  -24.6625   47.5591 O.3     1  UNL1        0.0000
   5082 O          27.0599  -17.8633   42.9963 O.3     1  UNL1        0.0000
   5083 O          14.2369  -19.3864   49.0620 O.3     1  UNL1        0.0000
   5084 O          24.3874  -18.1182   41.9973 O.3     1  UNL1        0.0000
   5085 O          16.7412  -20.2596   49.5624 O.3     1  UNL1        0.0000
   5086 O          25.3262  -15.8309   42.4473 O.3     1  UNL1        0.0000
   5087 O          14.9890  -21.9843   50.0551 O.3     1  UNL1        0.0000
   5088 O          19.5955  -25.1922   50.1498 O.3     1  UNL1        0.0000
   5089 O          21.3639  -13.2968   42.3779 O.3     1  UNL1        0.0000
   5090 O          20.5494  -22.9307   49.6856 O.3     1  UNL1        0.0000
   5091 O          19.6577  -15.0539   41.8604 O.3     1  UNL1        0.0000
   5092 O          21.9667  -26.0465   51.4519 O.3     1  UNL1        0.0000
   5093 O          20.2142  -11.3732   40.6039 O.3     1  UNL1        0.0000
   5094 O          22.7689  -23.2583   51.4467 O.3     1  UNL1        0.0000
   5095 O          17.9783  -13.2089   40.5438 O.3     1  UNL1        0.0000
   5096 O          27.5070  -16.1837   40.5900 O.3     1  UNL1        0.0000
   5097 O          13.3527  -20.1441   51.3778 O.3     1  UNL1        0.0000
   5098 O          26.7115  -18.9381   40.6194 O.2     1  UNL1        0.0000
   5099 O          15.6209  -18.3618   51.4591 O.3     1  UNL1        0.0000
   5100 O          22.5792  -15.7268   42.4984 O.3     1  UNL1        0.0000
   5101 O          17.8772  -22.7306   49.4794 O.3     1  UNL1        0.0000
   5102 O          25.0333  -16.9519   39.5656 O.3     1  UNL1        0.0000
   5103 O          20.4656  -13.8498   39.3988 O.3     1  UNL1        0.0000
   5104 H          21.6642  -21.0386   47.7397 H       1  UNL1        0.0000
   5105 H          17.7651  -26.7264   46.2871 H       1  UNL1        0.0000
   5106 H          22.4998  -11.9567   44.9838 H       1  UNL1        0.0000
   5107 H          22.7844  -19.2811   46.3342 H       1  UNL1        0.0000
   5108 H          17.8685  -19.0907   47.1364 H       1  UNL1        0.0000
   5109 H          14.3140  -24.1667   46.0529 H       1  UNL1        0.0000
   5110 H          19.2149  -20.9368   48.1023 H       1  UNL1        0.0000
   5111 H          18.9952  -17.3237   45.7577 H       1  UNL1        0.0000
   5112 H          23.5821  -14.1527   44.5922 H       1  UNL1        0.0000
   5113 H           9.9617  -13.9601   45.1286 H       1  UNL1        0.0000
   5114 C          20.9535  -18.2012   45.9709 C.ar    1  UNL1        0.0000
   5115 C          19.7045  -20.1655   47.5091 C.ar    1  UNL1        0.0000
   5116 C          24.1500  -13.3479   45.0596 C.ar    1  UNL1        0.0000
   5117 C          16.1112  -25.3432   46.2366 C.2     1  UNL1        0.0000
   5118 C          19.5659  -18.1378   46.1994 C.ar    1  UNL1        0.0000
   5119 C          21.0883  -20.2242   47.3024 C.ar    1  UNL1        0.0000
   5120 C          23.5361  -12.1091   45.2818 C.ar    1  UNL1        0.0000
   5121 C          16.7289  -26.5828   45.9876 C.3     1  UNL1        0.0000
   5122 C          25.4878  -13.5566   45.4149 C.ar    1  UNL1        0.0000
   5123 C          14.7734  -25.1328   45.8540 C.3     1  UNL1        0.0000
   5124 C          21.7142  -19.2451   46.5280 C.ar    1  UNL1        0.0000
   5125 C          18.9432  -19.1242   46.9639 C.ar    1  UNL1        0.0000
   5126 O          22.8345  -17.3439   44.7796 O.3     1  UNL1        0.0000
   5127 O          16.2141  -23.2178   47.3124 O.2     1  UNL1        0.0000
   5128 O          18.0354  -24.5412   47.3882 O.2     1  UNL1        0.0000
   5129 O          20.8714  -16.2523   44.6132 O.3     1  UNL1        0.0000
   5130 N          24.0717  -11.8358   64.5661 N.pl3  59  UNL59       0.0000
   5131 N          24.5465  -12.6152   66.5512 N.pl3  59  UNL59       0.0000
   5132 C          24.7505  -13.0309   64.3821 C.2    59  UNL59       0.0000
   5133 C          25.0511  -13.5160   65.6287 C.2    59  UNL59       0.0000
   5134 C          25.8476  -11.6657   68.4400 C.3    59  UNL59       0.0000
   5135 C          23.5791  -10.9512   63.5026 C.3    59  UNL59       0.0000
   5136 C          23.9521  -11.6068   65.8860 C.3    59  UNL59       0.0000
   5137 C          24.7612  -12.6516   68.0162 C.3    59  UNL59       0.0000
   5138 H          24.9826  -13.4269   63.4013 H      59  UNL59       0.0000
   5139 H          25.5693  -14.4173   65.9330 H      59  UNL59       0.0000
   5140 H          26.8024  -11.8950   67.9498 H      59  UNL59       0.0000
   5141 H          24.4179  -10.6672   62.8582 H      59  UNL59       0.0000
   5142 H          25.5698  -10.6317   68.1994 H      59  UNL59       0.0000
   5143 H          22.8197  -11.4900   62.9242 H      59  UNL59       0.0000
   5144 H          25.9925  -11.7340   69.5265 H      59  UNL59       0.0000
   5145 H          25.0474  -13.6826   68.2637 H      59  UNL59       0.0000
   5146 H          23.1368  -10.0622   63.9628 H      59  UNL59       0.0000
   5147 H          23.4523  -10.7578   66.3356 H      59  UNL59       0.0000
   5148 H          23.7933  -12.4462   68.4897 H      59  UNL59       0.0000
   5149 TI         22.6264   15.7277   11.3690 Ti      1  UNL1        0.0000
   5150 TI         33.4569   18.6090    2.0042 Ti      1  UNL1        0.0000
   5151 TI         26.7231   11.7915    9.5490 Ti      1  UNL1        0.0000
   5152 TI         28.2343   20.9537    3.7760 Ti      1  UNL1        0.0000
   5153 TI         27.2357   22.6320    1.8716 Ti      1  UNL1        0.0000
   5154 TI         28.6113   11.5372   11.5024 Ti      1  UNL1        0.0000
   5155 TI         23.5756   13.9918    9.4775 Ti      1  UNL1        0.0000
   5156 TI         31.4691   18.9115    3.8517 Ti      1  UNL1        0.0000
   5157 H          23.1283   19.6248   11.1496 H       1  UNL1        0.0000
   5158 H          34.2657   14.7029    2.3249 H       1  UNL1        0.0000
   5159 H          18.6665   14.9711   10.9866 H       1  UNL1        0.0000
   5160 H          36.8390   20.6133    2.2049 H       1  UNL1        0.0000
   5161 H          29.5869    7.5027   11.1165 H       1  UNL1        0.0000
   5162 H          23.1772   22.0421    2.1937 H       1  UNL1        0.0000
   5163 H          27.7302   20.9952   -0.0015 H       1  UNL1        0.0000
   5164 H          31.5814   18.3663    0.3043 H       1  UNL1        0.0000
   5165 H          29.1212   10.8701    5.9913 H       1  UNL1        0.0000
   5166 H          26.5108   22.7907    7.3950 H       1  UNL1        0.0000
   5167 H          19.5030   17.3805    9.1216 H       1  UNL1        0.0000
   5168 H          36.2116   16.5246    4.3102 H       1  UNL1        0.0000
   5169 H          21.8041   15.9330    5.7878 H       1  UNL1        0.0000
   5170 H          24.1356   24.4598    4.2249 H       1  UNL1        0.0000
   5171 H          27.6280   25.7348    2.7271 H       1  UNL1        0.0000
   5172 H          34.1078   12.6841    3.5274 H       1  UNL1        0.0000
   5173 H          30.3269   20.6338    2.4374 H       1  UNL1        0.0000
   5174 H          25.6424   13.6399   10.8427 H       1  UNL1        0.0000
   5175 H          32.8460   13.4721    9.8921 H       1  UNL1        0.0000
   5176 H          31.3649   13.0030   10.6394 H       1  UNL1        0.0000
   5177 H          33.4202   17.9057    8.7932 H       1  UNL1        0.0000
   5178 H          32.8504   18.2643    7.1746 H       1  UNL1        0.0000
   5179 H          32.3572    8.5172    9.7020 H       1  UNL1        0.0000
   5180 H          31.0781    9.6178   10.1594 H       1  UNL1        0.0000
   5181 C          34.0349   17.8677    4.8677 C.3     1  UNL1        0.0000
   5182 C          21.6659   15.9891    8.5220 C.3     1  UNL1        0.0000
   5183 C          29.3036   10.7808    8.6243 C.3     1  UNL1        0.0000
   5184 C          26.2982   22.9242    4.7354 C.3     1  UNL1        0.0000
   5185 C          34.9309   17.2634    5.8629 C.ar    1  UNL1        0.0000
   5186 C          20.7340   16.6141    7.5449 C.ar    1  UNL1        0.0000
   5187 C          30.2438   10.1665    7.6771 C.ar    1  UNL1        0.0000
   5188 C          25.4084   23.5710    5.7352 C.ar    1  UNL1        0.0000
   5189 C          34.6822   17.3383    7.2693 C.ar    1  UNL1        0.0000
   5190 C          20.9504   16.4942    6.1569 C.ar    1  UNL1        0.0000
   5191 C          31.3732    9.4062    8.1302 C.ar    1  UNL1        0.0000
   5192 C          24.3136   24.3439    5.2902 C.ar    1  UNL1        0.0000
   5193 C          25.6628   23.4002    7.0900 C.ar    1  UNL1        0.0000
   5194 C          29.9961   10.2986    6.2932 C.ar    1  UNL1        0.0000
   5195 C          36.0646   16.5644    5.3872 C.ar    1  UNL1        0.0000
   5196 C          19.6338   17.3066    8.0436 C.ar    1  UNL1        0.0000
   5197 C          34.2467   14.7820    0.1808 C.2     1  UNL1        0.0000
   5198 C          27.7770   26.5736    0.2058 C.2     1  UNL1        0.0000
   5199 C          36.7311   20.5451    0.0548 C.2     1  UNL1        0.0000
   5200 C          23.3728   22.0875    0.0354 C.2     1  UNL1        0.0000
   5201 C          28.9810   18.6105    5.7406 C.3     1  UNL1        0.0000
   5202 C          24.2249   11.5161    7.6587 C.3     1  UNL1        0.0000
   5203 C          34.1108   16.2368    0.1576 C.2     1  UNL1        0.0000
   5204 C          27.6842   25.1400    0.1683 C.2     1  UNL1        0.0000
   5205 C          35.4333   19.9283    0.1017 C.2     1  UNL1        0.0000
   5206 C          24.7751   22.5019    0.0599 C.2     1  UNL1        0.0000
   5207 C          34.2860   14.1129    1.4105 C.2     1  UNL1        0.0000
   5208 C          23.1392   20.2132   12.0635 C.ar    1  UNL1        0.0000
   5209 C          37.3864   20.8199    1.2888 C.2     1  UNL1        0.0000
   5210 C          18.1050   14.7917   11.9019 C.ar    1  UNL1        0.0000
   5211 C          32.7908   13.7474   11.9164 C.ar    1  UNL1        0.0000
   5212 C          22.6756   21.8571    1.2479 C.2     1  UNL1        0.0000
   5213 C          29.6285    6.9755   12.0655 C.ar    1  UNL1        0.0000
   5214 C          27.7907   27.3248    1.4351 C.2     1  UNL1        0.0000
   5215 N          27.8458   26.7259    2.6732 N.pl3   1  UNL1        0.0000
   5216 N          32.2117   13.5645   10.6774 N.pl3   1  UNL1        0.0000
   5217 N          33.6013   17.9846    7.8006 N.pl3   1  UNL1        0.0000
   5218 N          31.7043    9.2479    9.4476 N.pl3   1  UNL1        0.0000
   5219 O          32.8586   18.2728    5.2335 O.3     1  UNL1        0.0000
   5220 O          22.4349   15.0383    8.1237 O.3     1  UNL1        0.0000
   5221 O          29.6851   10.9053    9.8454 O.3     1  UNL1        0.0000
   5222 O          26.2323   23.3539    3.5358 O.3     1  UNL1        0.0000
   5223 O          27.0686   21.9670    5.1218 O.3     1  UNL1        0.0000
   5224 O          28.1332   11.1493    8.2188 O.3     1  UNL1        0.0000
   5225 O          34.4468   17.9485    3.6560 O.3     1  UNL1        0.0000
   5226 O          21.6238   16.4254    9.7217 O.3     1  UNL1        0.0000
   5227 O          31.7743   17.6936    2.6570 O.3     1  UNL1        0.0000
   5228 O          24.1281   15.5522   10.2221 O.3     1  UNL1        0.0000
   5229 O          32.7131   19.9809    3.1070 O.3     1  UNL1        0.0000
   5230 O          22.3759   13.8275   10.7147 O.3     1  UNL1        0.0000
   5231 O          26.9824   10.6196   10.8095 O.3     1  UNL1        0.0000
   5232 O          28.7508   22.5150    3.0375 O.3     1  UNL1        0.0000
   5233 O          27.9363   12.8811   10.3453 O.3     1  UNL1        0.0000
   5234 O          27.0446   20.7579    2.5201 O.3     1  UNL1        0.0000
   5235 O          29.3536    9.7653   12.1115 O.3     1  UNL1        0.0000
   5236 O          27.6011   24.4386    1.2635 O.2     1  UNL1        0.0000
   5237 O          30.1558   12.5535   12.1064 O.3     1  UNL1        0.0000
   5238 O          25.3652   22.6029    1.2034 O.2     1  UNL1        0.0000
   5239 O          34.8940   19.6281    1.2496 O.2     1  UNL1        0.0000
   5240 O          20.7396   15.6677   12.0375 O.3     1  UNL1        0.0000
   5241 O          34.0984   16.8738    1.2790 O.2     1  UNL1        0.0000
   5242 O          23.0078   17.4500   12.1187 O.3     1  UNL1        0.0000
   5243 O          29.9661   20.0851    3.1580 O.3     1  UNL1        0.0000
   5244 O          25.2641   13.0812   10.1391 O.3     1  UNL1        0.0000
   5245 O          32.4202   18.8599    0.2252 O.3     1  UNL1        0.0000
   5246 O          27.8525   21.9620    0.0585 O.3     1  UNL1        0.0000
   5247 H          29.0512   14.7732    8.3994 H       1  UNL1        0.0000
   5248 H          25.1520    9.0854    6.9468 H       1  UNL1        0.0000
   5249 H          29.8867   23.8551    5.6435 H       1  UNL1        0.0000
   5250 H          30.1713   16.5308    6.9938 H       1  UNL1        0.0000
   5251 H          25.2554   16.7211    7.7960 H       1  UNL1        0.0000
   5252 H          21.7009   11.6451    6.7125 H       1  UNL1        0.0000
   5253 H          26.6018   14.8750    8.7619 H       1  UNL1        0.0000
   5254 H          26.3821   18.4881    6.4174 H       1  UNL1        0.0000
   5255 H          30.9690   21.6591    5.2519 H       1  UNL1        0.0000
   5256 H          17.3486   21.8518    5.7882 H       1  UNL1        0.0000
   5257 C          28.3405   17.6107    6.6306 C.ar    1  UNL1        0.0000
   5258 C          27.0915   15.6463    8.1687 C.ar    1  UNL1        0.0000
   5259 C          31.5369   22.4639    5.7193 C.ar    1  UNL1        0.0000
   5260 C          23.4981   10.4687    6.8963 C.ar    1  UNL1        0.0000
   5261 C          26.9528   17.6740    6.8591 C.ar    1  UNL1        0.0000
   5262 C          28.4752   15.5876    7.9621 C.ar    1  UNL1        0.0000
   5263 C          30.9230   23.7027    5.9414 C.ar    1  UNL1        0.0000
   5264 C          24.1159    9.2290    6.6473 C.ar    1  UNL1        0.0000
   5265 C          32.8747   22.2552    6.0746 C.ar    1  UNL1        0.0000
   5266 C          22.1603   10.6790    6.5136 C.ar    1  UNL1        0.0000
   5267 C          29.1011   16.5667    7.1876 C.ar    1  UNL1        0.0000
   5268 C          26.3302   16.6876    7.6235 C.ar    1  UNL1        0.0000
   5269 O          30.2214   18.4679    5.4392 O.3     1  UNL1        0.0000
   5270 O          23.6010   12.5941    7.9720 O.3     1  UNL1        0.0000
   5271 O          25.4223   11.2706    8.0478 O.3     1  UNL1        0.0000
   5272 O          28.2583   19.5595    5.2728 O.3     1  UNL1        0.0000
   5273 N          31.4587   23.9760   25.2258 N.pl3  59  UNL59       0.0000
   5274 N          31.9334   23.1966   27.2108 N.pl3  59  UNL59       0.0000
   5275 C          32.1374   22.7809   25.0418 C.2    59  UNL59       0.0000
   5276 C          32.4381   22.2959   26.2884 C.2    59  UNL59       0.0000
   5277 C          33.2345   24.1461   29.0997 C.3    59  UNL59       0.0000
   5278 C          30.9660   24.8606   24.1622 C.3    59  UNL59       0.0000
   5279 C          31.3390   24.2050   26.5456 C.3    59  UNL59       0.0000
   5280 C          32.1481   23.1603   28.6759 C.3    59  UNL59       0.0000
   5281 H          32.3695   22.3849   24.0609 H      59  UNL59       0.0000
   5282 H          32.9562   21.3946   26.5926 H      59  UNL59       0.0000
   5283 H          34.1893   23.9168   28.6094 H      59  UNL59       0.0000
   5284 H          31.8048   25.1446   23.5178 H      59  UNL59       0.0000
   5285 H          32.9567   25.1801   28.8591 H      59  UNL59       0.0000
   5286 H          30.2066   24.3218   23.5838 H      59  UNL59       0.0000
   5287 H          33.3795   24.0778   30.1862 H      59  UNL59       0.0000
   5288 H          32.4343   22.1292   28.9233 H      59  UNL59       0.0000
   5289 H          30.5237   25.7496   24.6225 H      59  UNL59       0.0000
   5290 H          30.8392   25.0540   26.9952 H      59  UNL59       0.0000
   5291 H          31.1802   23.3656   29.1493 H      59  UNL59       0.0000
   5292 TI         17.9918    8.6613   24.4636 Ti      1  UNL1        0.0000
   5293 TI         28.8222   11.5425   15.0988 Ti      1  UNL1        0.0000
   5294 TI         22.0885    4.7251   22.6436 Ti      1  UNL1        0.0000
   5295 TI         23.5996   13.8872   16.8706 Ti      1  UNL1        0.0000
   5296 TI         22.6011   15.5656   14.9662 Ti      1  UNL1        0.0000
   5297 TI         23.9767    4.4708   24.5970 Ti      1  UNL1        0.0000
   5298 TI         18.9410    6.9254   22.5721 Ti      1  UNL1        0.0000
   5299 TI         26.8344   11.8451   16.9463 Ti      1  UNL1        0.0000
   5300 H          18.4936   12.5584   24.2442 H       1  UNL1        0.0000
   5301 H          29.6310    7.6365   15.4195 H       1  UNL1        0.0000
   5302 H          14.0319    7.9047   24.0812 H       1  UNL1        0.0000
   5303 H          32.2044   13.5468   15.2995 H       1  UNL1        0.0000
   5304 H          24.9523    0.4362   24.2111 H       1  UNL1        0.0000
   5305 H          18.5425   14.9757   15.2883 H       1  UNL1        0.0000
   5306 H          23.0955   13.9287   13.0931 H       1  UNL1        0.0000
   5307 H          26.9467   11.2998   13.3989 H       1  UNL1        0.0000
   5308 H          24.4866    3.8037   19.0859 H       1  UNL1        0.0000
   5309 H          21.8762   15.7243   20.4896 H       1  UNL1        0.0000
   5310 H          14.8683   10.3140   22.2162 H       1  UNL1        0.0000
   5311 H          31.5770    9.4582   17.4048 H       1  UNL1        0.0000
   5312 H          17.1695    8.8666   18.8824 H       1  UNL1        0.0000
   5313 H          19.5010   17.3934   17.3195 H       1  UNL1        0.0000
   5314 H          22.9933   18.6684   15.8217 H       1  UNL1        0.0000
   5315 H          29.4732    5.6176   16.6220 H       1  UNL1        0.0000
   5316 H          25.6923   13.5674   15.5320 H       1  UNL1        0.0000
   5317 H          21.0078    6.5735   23.9373 H       1  UNL1        0.0000
   5318 H          28.2114    6.4056   22.9867 H       1  UNL1        0.0000
   5319 H          26.7303    5.9366   23.7340 H       1  UNL1        0.0000
   5320 H          28.7855   10.8393   21.8878 H       1  UNL1        0.0000
   5321 H          28.2158   11.1978   20.2692 H       1  UNL1        0.0000
   5322 H          27.7226    1.4508   22.7966 H       1  UNL1        0.0000
   5323 H          26.4434    2.5514   23.2540 H       1  UNL1        0.0000
   5324 C          29.4003   10.8013   17.9623 C.3     1  UNL1        0.0000
   5325 C          17.0312    8.9227   21.6166 C.3     1  UNL1        0.0000
   5326 C          24.6690    3.7144   21.7189 C.3     1  UNL1        0.0000
   5327 C          21.6635   15.8578   17.8300 C.3     1  UNL1        0.0000
   5328 C          30.2963   10.1970   18.9575 C.ar    1  UNL1        0.0000
   5329 C          16.0993    9.5477   20.6395 C.ar    1  UNL1        0.0000
   5330 C          25.6092    3.1001   20.7717 C.ar    1  UNL1        0.0000
   5331 C          20.7737   16.5046   18.8298 C.ar    1  UNL1        0.0000
   5332 C          30.0475   10.2719   20.3640 C.ar    1  UNL1        0.0000
   5333 C          16.3157    9.4277   19.2515 C.ar    1  UNL1        0.0000
   5334 C          26.7386    2.3398   21.2248 C.ar    1  UNL1        0.0000
   5335 C          19.6790   17.2775   18.3848 C.ar    1  UNL1        0.0000
   5336 C          21.0282   16.3338   20.1846 C.ar    1  UNL1        0.0000
   5337 C          25.3614    3.2322   19.3878 C.ar    1  UNL1        0.0000
   5338 C          31.4300    9.4980   18.4818 C.ar    1  UNL1        0.0000
   5339 C          14.9991   10.2401   21.1382 C.ar    1  UNL1        0.0000
   5340 C          29.6120    7.7155   13.2754 C.ar    1  UNL1        0.0000
   5341 C          23.1423   19.5071   13.3004 C.ar    1  UNL1        0.0000
   5342 C          32.0965   13.4787   13.1494 C.ar    1  UNL1        0.0000
   5343 C          18.7381   15.0211   13.1300 C.ar    1  UNL1        0.0000
   5344 C          24.3464   11.5441   18.8352 C.3     1  UNL1        0.0000
   5345 C          19.5903    4.4497   20.7533 C.3     1  UNL1        0.0000
   5346 C          29.4762    9.1704   13.2522 C.3     1  UNL1        0.0000
   5347 C          23.0496   18.0736   13.2629 C.3     1  UNL1        0.0000
   5348 C          30.7986   12.8618   13.1963 C.3     1  UNL1        0.0000
   5349 C          20.1405   15.4354   13.1545 C.3     1  UNL1        0.0000
   5350 C          29.6514    7.0464   14.5051 C.ar    1  UNL1        0.0000
   5351 C          18.5046   13.1468   25.1581 C.ar    1  UNL1        0.0000
   5352 C          32.7518   13.7535   14.3834 C.ar    1  UNL1        0.0000
   5353 C          13.4704    7.7253   24.9965 C.ar    1  UNL1        0.0000
   5354 C          28.1561    6.6809   25.0110 C.ar    1  UNL1        0.0000
   5355 C          18.0410   14.7907   14.3425 C.ar    1  UNL1        0.0000
   5356 C          24.9939   -0.0909   25.1601 C.ar    1  UNL1        0.0000
   5357 C          23.1561   20.2583   14.5297 C.ar    1  UNL1        0.0000
   5358 N          23.2111   19.6595   15.7679 N.pl3   1  UNL1        0.0000
   5359 N          27.5771    6.4981   23.7721 N.pl3   1  UNL1        0.0000
   5360 N          28.9666   10.9181   20.8952 N.pl3   1  UNL1        0.0000
   5361 N          27.0696    2.1815   22.5422 N.pl3   1  UNL1        0.0000
   5362 O          28.2239   11.2064   18.3281 O.3     1  UNL1        0.0000
   5363 O          17.8002    7.9718   21.2183 O.3     1  UNL1        0.0000
   5364 O          25.0504    3.8389   22.9400 O.3     1  UNL1        0.0000
   5365 O          21.5976   16.2874   16.6304 O.3     1  UNL1        0.0000
   5366 O          22.4340   14.9005   18.2164 O.3     1  UNL1        0.0000
   5367 O          23.4985    4.0828   21.3134 O.3     1  UNL1        0.0000
   5368 O          29.8121   10.8820   16.7506 O.3     1  UNL1        0.0000
   5369 O          16.9892    9.3589   22.8163 O.3     1  UNL1        0.0000
   5370 O          27.1396   10.6272   15.7516 O.3     1  UNL1        0.0000
   5371 O          19.4934    8.4858   23.3167 O.3     1  UNL1        0.0000
   5372 O          28.0784   12.9145   16.2016 O.3     1  UNL1        0.0000
   5373 O          17.7412    6.7611   23.8093 O.3     1  UNL1        0.0000
   5374 O          22.3478    3.5531   23.9041 O.3     1  UNL1        0.0000
   5375 O          24.1162   15.4486   16.1321 O.3     1  UNL1        0.0000
   5376 O          23.3017    5.8146   23.4399 O.3     1  UNL1        0.0000
   5377 O          22.4100   13.6914   15.6147 O.3     1  UNL1        0.0000
   5378 O          24.7190    2.6989   25.2061 O.3     1  UNL1        0.0000
   5379 O          22.9665   17.3722   14.3581 O.3     1  UNL1        0.0000
   5380 O          25.5211    5.4871   25.2010 O.3     1  UNL1        0.0000
   5381 O          20.7305   15.5364   14.2980 O.3     1  UNL1        0.0000
   5382 O          30.2593   12.5616   14.3443 O.3     1  UNL1        0.0000
   5383 O          16.1050    8.6013   25.1321 O.3     1  UNL1        0.0000
   5384 O          29.4637    9.8073   14.3737 O.3     1  UNL1        0.0000
   5385 O          18.3732   10.3836   25.2133 O.3     1  UNL1        0.0000
   5386 O          25.3314   13.0186   16.2527 O.3     1  UNL1        0.0000
   5387 O          20.6295    6.0148   23.2337 O.3     1  UNL1        0.0000
   5388 O          27.7855   11.7935   13.3199 O.3     1  UNL1        0.0000
   5389 O          23.2179   14.8955   13.1531 O.3     1  UNL1        0.0000
   5390 H          24.4165    7.7068   21.4940 H       1  UNL1        0.0000
   5391 H          20.5173    2.0190   20.0414 H       1  UNL1        0.0000
   5392 H          25.2521   16.7886   18.7381 H       1  UNL1        0.0000
   5393 H          25.5366    9.4643   20.0884 H       1  UNL1        0.0000
   5394 H          20.6207    9.6547   20.8906 H       1  UNL1        0.0000
   5395 H          17.0663    4.5786   19.8071 H       1  UNL1        0.0000
   5396 H          21.9671    7.8085   21.8565 H       1  UNL1        0.0000
   5397 H          21.7475   11.4217   19.5120 H       1  UNL1        0.0000
   5398 H          26.3343   14.5926   18.3465 H       1  UNL1        0.0000
   5399 H          12.7140   14.7853   18.8828 H       1  UNL1        0.0000
   5400 C          23.7058   10.5442   19.7252 C.ar    1  UNL1        0.0000
   5401 C          22.4568    8.5799   21.2633 C.ar    1  UNL1        0.0000
   5402 C          26.9023   15.3975   18.8139 C.ar    1  UNL1        0.0000
   5403 C          18.8634    3.4022   19.9909 C.ar    1  UNL1        0.0000
   5404 C          22.3182   10.6076   19.9537 C.ar    1  UNL1        0.0000
   5405 C          23.8405    8.5212   21.0567 C.ar    1  UNL1        0.0000
   5406 C          26.2883   16.6362   19.0360 C.ar    1  UNL1        0.0000
   5407 C          19.4812    2.1626   19.7419 C.ar    1  UNL1        0.0000
   5408 C          28.2401   15.1888   19.1692 C.ar    1  UNL1        0.0000
   5409 C          17.5257    3.6126   19.6082 C.ar    1  UNL1        0.0000
   5410 C          24.4665    9.5002   20.2823 C.ar    1  UNL1        0.0000
   5411 C          21.6955    9.6211   20.7181 C.ar    1  UNL1        0.0000
   5412 O          25.5867   11.4015   18.5338 O.3     1  UNL1        0.0000
   5413 O          18.9664    5.5276   21.0666 O.3     1  UNL1        0.0000
   5414 O          20.7877    4.2042   21.1424 O.3     1  UNL1        0.0000
   5415 O          23.6237   12.4931   18.3674 O.3     1  UNL1        0.0000
   5416 N          26.8240   16.9096   38.3204 N.pl3  59  UNL59       0.0000
   5417 N          27.2987   16.1301   40.3054 N.pl3  59  UNL59       0.0000
   5418 C          27.5028   15.7145   38.1364 C.2    59  UNL59       0.0000
   5419 C          27.8034   15.2294   39.3830 C.2    59  UNL59       0.0000
   5420 C          28.5999   17.0797   42.1943 C.3    59  UNL59       0.0000
   5421 C          26.3314   17.7942   37.2569 C.3    59  UNL59       0.0000
   5422 C          26.7043   17.1385   39.6402 C.3    59  UNL59       0.0000
   5423 C          27.5134   16.0938   41.7705 C.3    59  UNL59       0.0000
   5424 H          27.7349   15.3185   37.1555 H      59  UNL59       0.0000
   5425 H          28.3216   14.3281   39.6872 H      59  UNL59       0.0000
   5426 H          29.5546   16.8504   41.7040 H      59  UNL59       0.0000
   5427 H          27.1702   18.0782   36.6124 H      59  UNL59       0.0000
   5428 H          28.3220   18.1137   41.9537 H      59  UNL59       0.0000
   5429 H          25.5720   17.2554   36.6784 H      59  UNL59       0.0000
   5430 H          28.7448   17.0113   43.2808 H      59  UNL59       0.0000
   5431 H          27.7997   15.0628   42.0179 H      59  UNL59       0.0000
   5432 H          25.8891   18.6832   37.7171 H      59  UNL59       0.0000
   5433 H          26.2046   17.9876   40.0898 H      59  UNL59       0.0000
   5434 H          26.5456   16.2992   42.2439 H      59  UNL59       0.0000
   5435 TI         13.3571    1.5949   37.5582 Ti      1  UNL1        0.0000
   5436 TI         24.1876    4.4761   28.1934 Ti      1  UNL1        0.0000
   5437 TI         17.4538   -2.3413   35.7383 Ti      1  UNL1        0.0000
   5438 TI         18.9650    6.8208   29.9652 Ti      1  UNL1        0.0000
   5439 TI         17.9664    8.4991   28.0608 Ti      1  UNL1        0.0000
   5440 TI         19.3420   -2.5957   37.6916 Ti      1  UNL1        0.0000
   5441 TI         14.3063   -0.1410   35.6668 Ti      1  UNL1        0.0000
   5442 TI         22.1998    4.7786   30.0409 Ti      1  UNL1        0.0000
   5443 H          13.8590    5.4920   37.3388 H       1  UNL1        0.0000
   5444 H          24.9964    0.5700   28.5141 H       1  UNL1        0.0000
   5445 H           9.3972    0.8382   37.1758 H       1  UNL1        0.0000
   5446 H          27.5697    6.4804   28.3941 H       1  UNL1        0.0000
   5447 H          20.3176   -6.6302   37.3057 H       1  UNL1        0.0000
   5448 H          13.9079    7.9092   28.3829 H       1  UNL1        0.0000
   5449 H          18.4609    6.8623   26.1878 H       1  UNL1        0.0000
   5450 H          22.3121    4.2334   26.4935 H       1  UNL1        0.0000
   5451 H          19.8519   -3.2628   32.1805 H       1  UNL1        0.0000
   5452 H          17.2416    8.6578   33.5842 H       1  UNL1        0.0000
   5453 H          10.2337    3.2476   35.3108 H       1  UNL1        0.0000
   5454 H          26.9423    2.3918   30.4994 H       1  UNL1        0.0000
   5455 H          12.5348    1.8002   31.9770 H       1  UNL1        0.0000
   5456 H          14.8663   10.3270   30.4141 H       1  UNL1        0.0000
   5457 H          18.3587   11.6019   28.9163 H       1  UNL1        0.0000
   5458 H          24.8385   -1.4488   29.7166 H       1  UNL1        0.0000
   5459 H          21.0576    6.5009   28.6266 H       1  UNL1        0.0000
   5460 H          16.3731   -0.4929   37.0319 H       1  UNL1        0.0000
   5461 H          23.5767   -0.6608   36.0813 H       1  UNL1        0.0000
   5462 H          22.0956   -1.1299   36.8286 H       1  UNL1        0.0000
   5463 H          24.1509    3.7728   34.9824 H       1  UNL1        0.0000
   5464 H          23.5811    4.1314   33.3638 H       1  UNL1        0.0000
   5465 H          23.0879   -5.6156   35.8913 H       1  UNL1        0.0000
   5466 H          21.8088   -4.5151   36.3486 H       1  UNL1        0.0000
   5467 C          24.7656    3.7348   31.0570 C.3     1  UNL1        0.0000
   5468 C          12.3966    1.8563   34.7112 C.3     1  UNL1        0.0000
   5469 C          20.0343   -3.3520   34.8135 C.3     1  UNL1        0.0000
   5470 C          17.0289    8.7913   30.9246 C.3     1  UNL1        0.0000
   5471 C          25.6616    3.1305   32.0521 C.ar    1  UNL1        0.0000
   5472 C          11.4647    2.4813   33.7342 C.ar    1  UNL1        0.0000
   5473 C          20.9745   -3.9664   33.8663 C.ar    1  UNL1        0.0000
   5474 C          16.1391    9.4381   31.9244 C.ar    1  UNL1        0.0000
   5475 C          25.4129    3.2054   33.4586 C.ar    1  UNL1        0.0000
   5476 C          11.6811    2.3613   32.3461 C.ar    1  UNL1        0.0000
   5477 C          22.1040   -4.7267   34.3194 C.ar    1  UNL1        0.0000
   5478 C          15.0443   10.2111   31.4794 C.ar    1  UNL1        0.0000
   5479 C          16.3936    9.2674   33.2793 C.ar    1  UNL1        0.0000
   5480 C          20.7268   -3.8342   32.4824 C.ar    1  UNL1        0.0000
   5481 C          26.7953    2.4315   31.5764 C.ar    1  UNL1        0.0000
   5482 C          10.3645    3.1737   34.2328 C.ar    1  UNL1        0.0000
   5483 C          24.9774    0.6491   26.3700 C.ar    1  UNL1        0.0000
   5484 C          18.5077   12.4407   26.3950 C.ar    1  UNL1        0.0000
   5485 C          27.4618    6.4122   26.2440 C.ar    1  UNL1        0.0000
   5486 C          14.1035    7.9547   26.2246 C.ar    1  UNL1        0.0000
   5487 C          19.7117    4.4776   31.9298 C.3     1  UNL1        0.0000
   5488 C          14.9556   -2.6167   33.8480 C.3     1  UNL1        0.0000
   5489 C          24.8415    2.1040   26.3468 C.3     1  UNL1        0.0000
   5490 C          18.4149   11.0072   26.3575 C.3     1  UNL1        0.0000
   5491 C          26.1640    5.7954   26.2909 C.3     1  UNL1        0.0000
   5492 C          15.5058    8.3690   26.2491 C.3     1  UNL1        0.0000
   5493 C          25.0167   -0.0200   27.5997 C.ar    1  UNL1        0.0000
   5494 C          13.8699    6.0804   38.2527 C.ar    1  UNL1        0.0000
   5495 C          28.1171    6.6870   27.4780 C.ar    1  UNL1        0.0000
   5496 C           8.8357    0.6589   38.0911 C.ar    1  UNL1        0.0000
   5497 C          23.5215   -0.3855   38.1056 C.ar    1  UNL1        0.0000
   5498 C          13.4063    7.7242   27.4371 C.ar    1  UNL1        0.0000
   5499 C          20.3593   -7.1574   38.2548 C.ar    1  UNL1        0.0000
   5500 C          18.5214   13.1919   27.6243 C.ar    1  UNL1        0.0000
   5501 N          18.5765   12.5930   28.8625 N.pl3   1  UNL1        0.0000
   5502 N          22.9425   -0.5683   36.8667 N.pl3   1  UNL1        0.0000
   5503 N          24.3320    3.8517   33.9899 N.pl3   1  UNL1        0.0000
   5504 N          22.4350   -4.8849   35.6368 N.pl3   1  UNL1        0.0000
   5505 O          23.5893    4.1399   31.4227 O.3     1  UNL1        0.0000
   5506 O          13.1656    0.9054   34.3129 O.3     1  UNL1        0.0000
   5507 O          20.4158   -3.2276   36.0346 O.3     1  UNL1        0.0000
   5508 O          16.9630    9.2210   29.7250 O.3     1  UNL1        0.0000
   5509 O          17.7993    7.8341   31.3110 O.3     1  UNL1        0.0000
   5510 O          18.8639   -2.9836   34.4080 O.3     1  UNL1        0.0000
   5511 O          25.1775    3.8156   29.8452 O.3     1  UNL1        0.0000
   5512 O          12.3546    2.2925   35.9109 O.3     1  UNL1        0.0000
   5513 O          22.5050    3.5607   28.8462 O.3     1  UNL1        0.0000
   5514 O          14.8588    1.4193   36.4113 O.3     1  UNL1        0.0000
   5515 O          23.4438    5.8480   29.2962 O.3     1  UNL1        0.0000
   5516 O          13.1066   -0.3053   36.9039 O.3     1  UNL1        0.0000
   5517 O          17.7131   -3.5133   36.9987 O.3     1  UNL1        0.0000
   5518 O          19.4815    8.3821   29.2267 O.3     1  UNL1        0.0000
   5519 O          18.6671   -1.2518   36.5345 O.3     1  UNL1        0.0000
   5520 O          17.7753    6.6250   28.7093 O.3     1  UNL1        0.0000
   5521 O          20.0843   -4.3675   38.3007 O.3     1  UNL1        0.0000
   5522 O          18.3318   10.3057   27.4527 O.3     1  UNL1        0.0000
   5523 O          20.8865   -1.5793   38.2956 O.3     1  UNL1        0.0000
   5524 O          16.0959    8.4700   27.3927 O.3     1  UNL1        0.0000
   5525 O          25.6247    5.4952   27.4389 O.3     1  UNL1        0.0000
   5526 O          11.4703    1.5348   38.2267 O.3     1  UNL1        0.0000
   5527 O          24.8291    2.7409   27.4683 O.3     1  UNL1        0.0000
   5528 O          13.7385    3.3172   38.3079 O.3     1  UNL1        0.0000
   5529 O          20.6968    5.9522   29.3473 O.3     1  UNL1        0.0000
   5530 O          15.9948   -1.0516   36.3283 O.3     1  UNL1        0.0000
   5531 O          23.1509    4.7271   26.4145 O.3     1  UNL1        0.0000
   5532 O          18.5832    7.8291   26.2477 O.3     1  UNL1        0.0000
   5533 H          19.7819    0.6403   34.5886 H       1  UNL1        0.0000
   5534 H          15.8827   -5.0475   33.1360 H       1  UNL1        0.0000
   5535 H          20.6174    9.7222   31.8327 H       1  UNL1        0.0000
   5536 H          20.9020    2.3979   33.1830 H       1  UNL1        0.0000
   5537 H          15.9861    2.5883   33.9853 H       1  UNL1        0.0000
   5538 H          12.4316   -2.4878   32.9018 H       1  UNL1        0.0000
   5539 H          17.3325    0.7421   34.9512 H       1  UNL1        0.0000
   5540 H          17.1128    4.3552   32.6066 H       1  UNL1        0.0000
   5541 H          21.6997    7.5262   31.4411 H       1  UNL1        0.0000
   5542 H           8.0793    7.7189   31.9774 H       1  UNL1        0.0000
   5543 C          19.0712    3.4778   32.8198 C.ar    1  UNL1        0.0000
   5544 C          17.8222    1.5134   34.3579 C.ar    1  UNL1        0.0000
   5545 C          22.2676    8.3311   31.9085 C.ar    1  UNL1        0.0000
   5546 C          14.2288   -3.6642   33.0855 C.ar    1  UNL1        0.0000
   5547 C          17.6836    3.5411   33.0483 C.ar    1  UNL1        0.0000
   5548 C          19.2059    1.4547   34.1513 C.ar    1  UNL1        0.0000
   5549 C          21.6537    9.5698   32.1306 C.ar    1  UNL1        0.0000
   5550 C          14.8466   -4.9039   32.8365 C.ar    1  UNL1        0.0000
   5551 C          23.6054    8.1223   32.2638 C.ar    1  UNL1        0.0000
   5552 C          12.8910   -3.4539   32.7028 C.ar    1  UNL1        0.0000
   5553 C          19.8318    2.4338   33.3769 C.ar    1  UNL1        0.0000
   5554 C          17.0609    2.5547   33.8127 C.ar    1  UNL1        0.0000
   5555 O          20.9521    4.3351   31.6285 O.3     1  UNL1        0.0000
   5556 O          14.3317   -1.5388   34.1612 O.3     1  UNL1        0.0000
   5557 O          16.1531   -2.8622   34.2370 O.3     1  UNL1        0.0000
   5558 O          18.9890    5.4267   31.4620 O.3     1  UNL1        0.0000
   5559 N          22.1894    9.8431   51.4150 N.pl3  59  UNL59       0.0000
   5560 N          22.6641    9.0637   53.4000 N.pl3  59  UNL59       0.0000
   5561 C          22.8681    8.6480   51.2310 C.2    59  UNL59       0.0000
   5562 C          23.1688    8.1630   52.4776 C.2    59  UNL59       0.0000
   5563 C          23.9652   10.0132   55.2889 C.3    59  UNL59       0.0000
   5564 C          21.6967   10.7278   50.3515 C.3    59  UNL59       0.0000
   5565 C          22.0697   10.0721   52.7348 C.3    59  UNL59       0.0000
   5566 C          22.8788    9.0274   54.8651 C.3    59  UNL59       0.0000
   5567 H          23.1002    8.2520   50.2501 H      59  UNL59       0.0000
   5568 H          23.6869    7.2617   52.7818 H      59  UNL59       0.0000
   5569 H          24.9200    9.7839   54.7986 H      59  UNL59       0.0000
   5570 H          22.5355   11.0117   49.7070 H      59  UNL59       0.0000
   5571 H          23.6874   11.0472   55.0483 H      59  UNL59       0.0000
   5572 H          20.9373   10.1890   49.7730 H      59  UNL59       0.0000
   5573 H          24.1102    9.9449   56.3754 H      59  UNL59       0.0000
   5574 H          23.1651    7.9963   55.1125 H      59  UNL59       0.0000
   5575 H          21.2544   11.6168   50.8117 H      59  UNL59       0.0000
   5576 H          21.5700   10.9211   53.1844 H      59  UNL59       0.0000
   5577 H          21.9109    9.2327   55.3386 H      59  UNL59       0.0000
   5578 TI          8.7225   -5.4716   50.6528 Ti      1  UNL1        0.0000
   5579 TI         19.5529   -2.5904   41.2880 Ti      1  UNL1        0.0000
   5580 TI         12.8192   -9.4078   48.8329 Ti      1  UNL1        0.0000
   5581 TI         14.3303   -0.2456   43.0598 Ti      1  UNL1        0.0000
   5582 TI         13.3318    1.4327   41.1554 Ti      1  UNL1        0.0000
   5583 TI         14.7074   -9.6621   50.7862 Ti      1  UNL1        0.0000
   5584 TI          9.6717   -7.2075   48.7614 Ti      1  UNL1        0.0000
   5585 TI         17.5651   -2.2878   43.1355 Ti      1  UNL1        0.0000
   5586 H           9.2243   -1.5745   50.4334 H      59  UNL59       0.0000
   5587 H          20.3617   -6.4964   41.6087 H       1  UNL1        0.0000
   5588 H           4.7626   -6.2282   50.2704 H      22  UNL22       0.0000
   5589 H          22.9351   -0.5861   41.4887 H       1  UNL1        0.0000
   5590 H          15.6830  -13.6966   50.4003 H      59  UNL59       0.0000
   5591 H           9.2732    0.8428   41.4775 H       1  UNL1        0.0000
   5592 H          13.8262   -0.2041   39.2824 H       1  UNL1        0.0000
   5593 H          17.6774   -2.8330   39.5881 H       1  UNL1        0.0000
   5594 H          15.2173  -10.3292   45.2751 H       1  UNL1        0.0000
   5595 H          12.6069    1.5914   46.6788 H       1  UNL1        0.0000
   5596 H           5.5991   -3.8188   48.4055 H       1  UNL1        0.0000
   5597 H          22.3077   -4.6747   43.5940 H       1  UNL1        0.0000
   5598 H           7.9002   -5.2663   45.0716 H       1  UNL1        0.0000
   5599 H          10.2317    3.2605   43.5087 H       1  UNL1        0.0000
   5600 H          13.7240    4.5355   42.0109 H       1  UNL1        0.0000
   5601 H          20.2039   -8.5152   42.8112 H       1  UNL1        0.0000
   5602 H          16.4230   -0.5655   41.7212 H       1  UNL1        0.0000
   5603 H          11.7385   -7.5594   50.1265 H       1  UNL1        0.0000
   5604 H          18.9421   -7.7273   49.1759 H      59  UNL59       0.0000
   5605 H          17.4610   -8.1963   49.9232 H      59  UNL59       0.0000
   5606 H          19.5162   -3.2936   48.0770 H       1  UNL1        0.0000
   5607 H          18.9465   -2.9350   46.4584 H       1  UNL1        0.0000
   5608 H          18.4533  -12.6821   48.9859 H       1  UNL1        0.0000
   5609 H          17.1741  -11.5815   49.4433 H       1  UNL1        0.0000
   5610 C          20.1310   -3.3316   44.1516 C.3     1  UNL1        0.0000
   5611 C           7.7619   -5.2102   47.8058 C.3     1  UNL1        0.0000
   5612 C          15.3997  -10.4185   47.9081 C.3     1  UNL1        0.0000
   5613 C          12.3942    1.7249   44.0192 C.3     1  UNL1        0.0000
   5614 C          21.0270   -3.9359   45.1468 C.ar    1  UNL1        0.0000
   5615 C           6.8300   -4.5852   46.8288 C.ar    1  UNL1        0.0000
   5616 C          16.3399  -11.0328   46.9610 C.ar    1  UNL1        0.0000
   5617 C          11.5044    2.3717   45.0190 C.ar    1  UNL1        0.0000
   5618 C          20.7782   -3.8610   46.5532 C.ar    1  UNL1        0.0000
   5619 C           7.0464   -4.7051   45.4407 C.ar    1  UNL1        0.0000
   5620 C          17.4693  -11.7931   47.4140 C.ar    1  UNL1        0.0000
   5621 C          10.4097    3.1446   44.5741 C.ar    1  UNL1        0.0000
   5622 C          11.7589    2.2009   46.3739 C.ar    1  UNL1        0.0000
   5623 C          16.0922  -10.9007   45.5770 C.ar    1  UNL1        0.0000
   5624 C          22.1607   -4.6349   44.6710 C.ar    1  UNL1        0.0000
   5625 C           5.7299   -3.8928   47.3274 C.ar    1  UNL1        0.0000
   5626 C          20.3428   -6.4173   39.4646 C.ar    1  UNL1        0.0000
   5627 C          13.8730    5.3743   39.4896 C.ar    1  UNL1        0.0000
   5628 C          22.8272   -0.6542   39.3386 C.ar    1  UNL1        0.0000
   5629 C           9.4689    0.8882   39.3192 C.ar    1  UNL1        0.0000
   5630 C          15.0771   -2.5888   45.0244 C.3     1  UNL1        0.0000
   5631 C          10.3210   -9.6832   46.9426 C.3     1  UNL1        0.0000
   5632 C          20.2069   -4.9625   39.4414 C.3     1  UNL1        0.0000
   5633 C          13.7803    3.9407   39.4521 C.3     1  UNL1        0.0000
   5634 C          21.5294   -1.2711   39.3855 C.3     1  UNL1        0.0000
   5635 C          10.8712    1.3026   39.3437 C.3     1  UNL1        0.0000
   5636 C          20.3821   -7.0865   40.6943 C.ar    1  UNL1        0.0000
   5637 C           9.2353   -0.9861   51.3473 C.2    59  UNL59       0.0000
   5638 C          23.4825   -0.3794   40.5726 C.ar    1  UNL1        0.0000
   5639 C           4.2011   -6.4076   51.1857 C.2    22  UNL22       0.0000
   5640 C          18.8868   -7.4519   51.2002 C.2    59  UNL59       0.0000
   5641 C           8.7717    0.6578   40.5317 C.ar    1  UNL1        0.0000
   5642 C          15.7246  -14.2238   51.3494 C.2    59  UNL59       0.0000
   5643 C          13.8868    6.1254   40.7189 C.ar    1  UNL1        0.0000
   5644 N          13.9419    5.5266   41.9571 N.pl3   1  UNL1        0.0000
   5645 N          18.3078   -7.6348   49.9613 N.pl3  59  UNL59       0.0000
   5646 N          19.6974   -3.2147   47.0845 N.pl3   1  UNL1        0.0000
   5647 N          17.8003  -11.9514   48.7314 N.pl3   1  UNL1        0.0000
   5648 O          18.9547   -2.9265   44.5174 O.3     1  UNL1        0.0000
   5649 O           8.5309   -6.1610   47.4075 O.3     1  UNL1        0.0000
   5650 O          15.7811  -10.2940   49.1293 O.3     1  UNL1        0.0000
   5651 O          12.3284    2.1545   42.8196 O.3     1  UNL1        0.0000
   5652 O          13.1647    0.7677   44.4056 O.3     1  UNL1        0.0000
   5653 O          14.2292  -10.0500   47.5026 O.3     1  UNL1        0.0000
   5654 O          20.5429   -3.2508   42.9398 O.3     1  UNL1        0.0000
   5655 O           7.7199   -4.7739   49.0055 O.3     1  UNL1        0.0000
   5656 O          17.8704   -3.5057   41.9408 O.3     1  UNL1        0.0000
   5657 O          10.2241   -5.6471   49.5059 O.3     1  UNL1        0.0000
   5658 O          18.8091   -1.2184   42.3908 O.3     1  UNL1        0.0000
   5659 O           8.4720   -7.3718   49.9986 O.3     1  UNL1        0.0000
   5660 O          13.0785  -10.5797   50.0933 O.3     1  UNL1        0.0000
   5661 O          14.8469    1.3157   42.3214 O.3     1  UNL1        0.0000
   5662 O          14.0324   -8.3182   49.6291 O.3     1  UNL1        0.0000
   5663 O          13.1407   -0.4414   41.8039 O.3     1  UNL1        0.0000
   5664 O          15.4497  -11.4340   51.3953 O.3     1  UNL1        0.0000
   5665 O          13.6972    3.2393   40.5473 O.3     1  UNL1        0.0000
   5666 O          16.2518   -8.6458   51.3902 O.3     1  UNL1        0.0000
   5667 O          11.4612    1.4036   40.4873 O.3     1  UNL1        0.0000
   5668 O          20.9900   -1.5712   40.5335 O.3     1  UNL1        0.0000
   5669 O           6.8357   -5.5316   51.3213 O.3     1  UNL1        0.0000
   5670 O          20.1945   -4.3256   40.5629 O.3     1  UNL1        0.0000
   5671 O           9.1039   -3.7493   51.4026 O.3     1  UNL1        0.0000
   5672 O          16.0621   -1.1143   42.4419 O.3     1  UNL1        0.0000
   5673 O          11.3602   -8.1181   49.4229 O.3     1  UNL1        0.0000
   5674 O          18.5162   -2.3394   39.5091 O.3     1  UNL1        0.0000
   5675 O          13.9486    0.7627   39.3423 O.3     1  UNL1        0.0000
   5676 H          15.1472   -6.4261   47.6832 H       1  UNL1        0.0000
   5677 H          11.2480  -12.1139   46.2306 H       1  UNL1        0.0000
   5678 H          15.9828    2.6558   44.9273 H       1  UNL1        0.0000
   5679 H          16.2673   -4.6685   46.2776 H       1  UNL1        0.0000
   5680 H          11.3515   -4.4782   47.0799 H       1  UNL1        0.0000
   5681 H           7.7970   -9.5542   45.9964 H       1  UNL1        0.0000
   5682 H          12.6978   -6.3243   48.0458 H       1  UNL1        0.0000
   5683 H          12.4782   -2.7112   45.7012 H       1  UNL1        0.0000
   5684 H          17.0650    0.4598   44.5357 H       1  UNL1        0.0000
   5685 H           3.4447    0.6524   45.0721 H       1  UNL1        0.0000
   5686 C          14.4365   -3.5887   45.9144 C.ar    1  UNL1        0.0000
   5687 C          13.1875   -5.5530   47.4526 C.ar    1  UNL1        0.0000
   5688 C          17.6330    1.2646   45.0031 C.ar    1  UNL1        0.0000
   5689 C           9.5942  -10.7306   46.1801 C.ar    1  UNL1        0.0000
   5690 C          13.0489   -3.5253   46.1429 C.ar    1  UNL1        0.0000
   5691 C          14.5712   -5.6117   47.2459 C.ar    1  UNL1        0.0000
   5692 C          17.0191    2.5034   45.2252 C.ar    1  UNL1        0.0000
   5693 C          10.2119  -11.9703   45.9311 C.ar    1  UNL1        0.0000
   5694 C          18.9708    1.0559   45.3584 C.ar    1  UNL1        0.0000
   5695 C           8.2564  -10.5203   45.7975 C.ar    1  UNL1        0.0000
   5696 C          15.1972   -4.6326   46.4715 C.ar    1  UNL1        0.0000
   5697 C          12.4262   -4.5117   46.9073 C.ar    1  UNL1        0.0000
   5698 O          16.3174   -2.7314   44.7231 O.3     1  UNL1        0.0000
   5699 O           9.6971   -8.6052   47.2559 O.3     1  UNL1        0.0000
   5700 O          11.5184   -9.9287   47.3316 O.3     1  UNL1        0.0000
   5701 O          14.3544   -1.6398   44.5567 O.3     1  UNL1        0.0000
   5702 N          17.5547    2.7767   64.5096 N.pl3  59  UNL59       0.0000
   5703 N          18.0294    1.9973   66.4946 N.pl3  59  UNL59       0.0000
   5704 C          18.2335    1.5816   64.3256 C.2    59  UNL59       0.0000
   5705 C          18.5341    1.0965   65.5722 C.2    59  UNL59       0.0000
   5706 C          19.3306    2.9468   68.3835 C.3    59  UNL59       0.0000
   5707 C          17.0621    3.6613   63.4461 C.3    59  UNL59       0.0000
   5708 C          17.4350    3.0057   65.8294 C.3    59  UNL59       0.0000
   5709 C          18.2441    1.9609   67.9597 C.3    59  UNL59       0.0000
   5710 H          18.4656    1.1856   63.3448 H      59  UNL59       0.0000
   5711 H          19.0523    0.1952   65.8764 H      59  UNL59       0.0000
   5712 H          20.2853    2.7175   67.8933 H      59  UNL59       0.0000
   5713 H          17.9009    3.9453   62.8016 H      59  UNL59       0.0000
   5714 H          19.0527    3.9808   68.1429 H      59  UNL59       0.0000
   5715 H          16.3027    3.1225   62.8676 H      59  UNL59       0.0000
   5716 H          19.4755    2.8785   69.4700 H      59  UNL59       0.0000
   5717 H          18.5304    0.9299   68.2072 H      59  UNL59       0.0000
   5718 H          16.6198    4.5503   63.9063 H      59  UNL59       0.0000
   5719 H          16.9353    3.8547   66.2790 H      59  UNL59       0.0000
   5720 H          17.2763    2.1663   68.4332 H      59  UNL59       0.0000
   5721 TI         16.1094   30.3402   11.3125 Ti      1  UNL1        0.0000
   5722 TI         26.9399   33.2215    1.9477 Ti      1  UNL1        0.0000
   5723 TI         20.2061   26.4041    9.4925 Ti      1  UNL1        0.0000
   5724 TI         21.7173   35.5662    3.7195 Ti      1  UNL1        0.0000
   5725 TI         20.7187   37.2445    1.8151 Ti      1  UNL1        0.0000
   5726 TI         22.0943   26.1497   11.4459 Ti      1  UNL1        0.0000
   5727 TI         17.0586   28.6044    9.4210 Ti      1  UNL1        0.0000
   5728 TI         24.9520   33.5240    3.7952 Ti      1  UNL1        0.0000
   5729 H          16.6113   34.2373   11.0930 H       1  UNL1        0.0000
   5730 H          27.7486   29.3154    2.2684 H       1  UNL1        0.0000
   5731 H          12.1495   29.5836   10.9300 H       1  UNL1        0.0000
   5732 H          30.3220   35.2258    2.1483 H       1  UNL1        0.0000
   5733 H          23.0699   22.1152   11.0600 H       1  UNL1        0.0000
   5734 H          16.6602   36.6546    2.1372 H       1  UNL1        0.0000
   5735 H          21.2131   35.6077   -0.0580 H       1  UNL1        0.0000
   5736 H          25.0643   32.9788    0.2478 H       1  UNL1        0.0000
   5737 H          22.6042   25.4826    5.9348 H       1  UNL1        0.0000
   5738 H          19.9938   37.4032    7.3384 H       1  UNL1        0.0000
   5739 H          12.9860   31.9930    9.0651 H       1  UNL1        0.0000
   5740 H          29.6946   31.1371    4.2537 H       1  UNL1        0.0000
   5741 H          15.2871   30.5455    5.7313 H       1  UNL1        0.0000
   5742 H          17.6186   39.0724    4.1683 H       1  UNL1        0.0000
   5743 H          21.1109   40.3473    2.6706 H       1  UNL1        0.0000
   5744 H          27.5908   27.2966    3.4709 H       1  UNL1        0.0000
   5745 H          23.8099   35.2463    2.3809 H       1  UNL1        0.0000
   5746 H          19.1254   28.2524   10.7861 H       1  UNL1        0.0000
   5747 H          26.3290   28.0846    9.8355 H       1  UNL1        0.0000
   5748 H          24.8479   27.6155   10.5829 H       1  UNL1        0.0000
   5749 H          26.9031   32.5182    8.7366 H       1  UNL1        0.0000
   5750 H          26.3334   32.8768    7.1181 H       1  UNL1        0.0000
   5751 H          25.8402   23.1297    9.6455 H       1  UNL1        0.0000
   5752 H          24.5611   24.2303   10.1029 H       1  UNL1        0.0000
   5753 C          27.5179   32.4802    4.8112 C.3     1  UNL1        0.0000
   5754 C          15.1488   30.6016    8.4655 C.3     1  UNL1        0.0000
   5755 C          22.7866   25.3933    8.5678 C.3     1  UNL1        0.0000
   5756 C          19.7811   37.5367    4.6788 C.3     1  UNL1        0.0000
   5757 C          28.4139   31.8759    5.8064 C.ar    1  UNL1        0.0000
   5758 C          14.2169   31.2267    7.4884 C.ar    1  UNL1        0.0000
   5759 C          23.7268   24.7790    7.6206 C.ar    1  UNL1        0.0000
   5760 C          18.8913   38.1835    5.6786 C.ar    1  UNL1        0.0000
   5761 C          28.1651   31.9508    7.2128 C.ar    1  UNL1        0.0000
   5762 C          14.4333   31.1067    6.1004 C.ar    1  UNL1        0.0000
   5763 C          24.8562   24.0187    8.0737 C.ar    1  UNL1        0.0000
   5764 C          17.7966   38.9565    5.2337 C.ar    1  UNL1        0.0000
   5765 C          19.1458   38.0127    7.0335 C.ar    1  UNL1        0.0000
   5766 C          23.4791   24.9111    6.2367 C.ar    1  UNL1        0.0000
   5767 C          29.5476   31.1769    5.3307 C.ar    1  UNL1        0.0000
   5768 C          13.1168   31.9191    7.9871 C.ar    1  UNL1        0.0000
   5769 C          27.7297   29.3945    0.1243 C.2     1  UNL1        0.0000
   5770 C          21.2599   41.1861    0.1493 C.2     1  UNL1        0.0000
   5771 C          30.2141   35.1576   -0.0017 C.2     1  UNL1        0.0000
   5772 C          16.8558   36.7000   -0.0211 C.2     1  UNL1        0.0000
   5773 C          22.4640   33.2230    5.6841 C.3     1  UNL1        0.0000
   5774 C          17.7079   26.1286    7.6022 C.3     1  UNL1        0.0000
   5775 C          27.5938   30.8493    0.1011 C.2     1  UNL1        0.0000
   5776 C          21.1672   39.7526    0.1118 C.2     1  UNL1        0.0000
   5777 C          28.9163   34.5408    0.0451 C.2     1  UNL1        0.0000
   5778 C          18.2581   37.1144    0.0033 C.2     1  UNL1        0.0000
   5779 C          27.7690   28.7254    1.3540 C.2     1  UNL1        0.0000
   5780 C          16.6222   34.8257   12.0069 C.ar    1  UNL1        0.0000
   5781 C          30.8694   35.4324    1.2322 C.2     1  UNL1        0.0000
   5782 C          11.5880   29.4042   11.8454 C.ar    1  UNL1        0.0000
   5783 C          26.2738   28.3599   11.8599 C.ar    1  UNL1        0.0000
   5784 C          16.1586   36.4696    1.1914 C.2     1  UNL1        0.0000
   5785 C          23.1115   21.5880   12.0090 C.ar    1  UNL1        0.0000
   5786 C          21.2737   41.9373    1.3786 C.2     1  UNL1        0.0000
   5787 N          21.3288   41.3384    2.6167 N.pl3   1  UNL1        0.0000
   5788 N          25.6947   28.1770   10.6209 N.pl3   1  UNL1        0.0000
   5789 N          27.0843   32.5971    7.7441 N.pl3   1  UNL1        0.0000
   5790 N          25.1872   23.8604    9.3911 N.pl3   1  UNL1        0.0000
   5791 O          26.3416   32.8853    5.1770 O.3     1  UNL1        0.0000
   5792 O          15.9178   29.6508    8.0672 O.3     1  UNL1        0.0000
   5793 O          23.1680   25.5178    9.7889 O.3     1  UNL1        0.0000
   5794 O          19.7153   37.9664    3.4792 O.3     1  UNL1        0.0000
   5795 O          20.5516   36.5795    5.0653 O.3     1  UNL1        0.0000
   5796 O          21.6161   25.7618    8.1623 O.3     1  UNL1        0.0000
   5797 O          27.9298   32.5610    3.5995 O.3     1  UNL1        0.0000
   5798 O          15.1068   31.0379    9.6652 O.3     1  UNL1        0.0000
   5799 O          25.2573   32.3061    2.6005 O.3     1  UNL1        0.0000
   5800 O          17.6110   30.1647   10.1655 O.3     1  UNL1        0.0000
   5801 O          26.1960   34.5934    3.0504 O.3     1  UNL1        0.0000
   5802 O          15.8589   28.4400   10.6582 O.3     1  UNL1        0.0000
   5803 O          20.4654   25.2321   10.7529 O.3     1  UNL1        0.0000
   5804 O          22.2338   37.1275    2.9810 O.3     1  UNL1        0.0000
   5805 O          21.4193   27.4936   10.2888 O.3     1  UNL1        0.0000
   5806 O          20.5276   35.3704    2.4636 O.3     1  UNL1        0.0000
   5807 O          22.8366   24.3778   12.0550 O.3     1  UNL1        0.0000
   5808 O          21.0841   39.0511    1.2070 O.2     1  UNL1        0.0000
   5809 O          23.6387   27.1660   12.0499 O.3     1  UNL1        0.0000
   5810 O          18.8481   37.2154    1.1469 O.2     1  UNL1        0.0000
   5811 O          28.3769   34.2406    1.1931 O.2     1  UNL1        0.0000
   5812 O          14.2226   30.2802   11.9809 O.3     1  UNL1        0.0000
   5813 O          27.5814   31.4863    1.2225 O.2     1  UNL1        0.0000
   5814 O          16.4908   32.0625   12.0622 O.3     1  UNL1        0.0000
   5815 O          23.4490   34.6976    3.1015 O.3     1  UNL1        0.0000
   5816 O          18.7471   27.6938   10.0825 O.3     1  UNL1        0.0000
   5817 O          25.9032   33.4724    0.1687 O.3     1  UNL1        0.0000
   5818 O          21.3355   36.5745    0.0020 O.3     1  UNL1        0.0000
   5819 H          22.5341   29.3857    8.3429 H       1  UNL1        0.0000
   5820 H          18.6349   23.6979    6.8903 H       1  UNL1        0.0000
   5821 H          23.3697   38.4676    5.5869 H       1  UNL1        0.0000
   5822 H          23.6542   31.1433    6.9373 H       1  UNL1        0.0000
   5823 H          18.7384   31.3337    7.7395 H       1  UNL1        0.0000
   5824 H          15.1839   26.2576    6.6560 H       1  UNL1        0.0000
   5825 H          20.0847   29.4875    8.7054 H       1  UNL1        0.0000
   5826 H          19.8651   33.1006    6.3608 H       1  UNL1        0.0000
   5827 H          24.4519   36.2716    5.1953 H       1  UNL1        0.0000
   5828 H          10.8316   36.4643    5.7317 H       1  UNL1        0.0000
   5829 C          21.8234   32.2232    6.5740 C.ar    1  UNL1        0.0000
   5830 C          20.5744   30.2588    8.1122 C.ar    1  UNL1        0.0000
   5831 C          25.0199   37.0764    5.6627 C.ar    1  UNL1        0.0000
   5832 C          16.9811   25.0812    6.8398 C.ar    1  UNL1        0.0000
   5833 C          20.4358   32.2865    6.8026 C.ar    1  UNL1        0.0000
   5834 C          21.9582   30.2001    7.9056 C.ar    1  UNL1        0.0000
   5835 C          24.4060   38.3152    5.8849 C.ar    1  UNL1        0.0000
   5836 C          17.5988   23.8415    6.5907 C.ar    1  UNL1        0.0000
   5837 C          26.3577   36.8677    6.0180 C.ar    1  UNL1        0.0000
   5838 C          15.6433   25.2915    6.4571 C.ar    1  UNL1        0.0000
   5839 C          22.5841   31.1792    7.1311 C.ar    1  UNL1        0.0000
   5840 C          19.8131   31.3001    7.5670 C.ar    1  UNL1        0.0000
   5841 O          23.7044   33.0804    5.3827 O.3     1  UNL1        0.0000
   5842 O          17.0840   27.2066    7.9155 O.3     1  UNL1        0.0000
   5843 O          18.9053   25.8831    7.9913 O.3     1  UNL1        0.0000
   5844 O          21.7413   34.1721    5.2163 O.3     1  UNL1        0.0000
   5845 N          24.9416   38.5885   25.1693 N.pl3  59  UNL59       0.0000
   5846 N          25.4163   37.8091   27.1543 N.pl3  59  UNL59       0.0000
   5847 C          25.6204   37.3934   24.9852 C.2    59  UNL59       0.0000
   5848 C          25.9210   36.9084   26.2319 C.2    59  UNL59       0.0000
   5849 C          26.7175   38.7586   29.0431 C.3    59  UNL59       0.0000
   5850 C          24.4490   39.4731   24.1057 C.3    59  UNL59       0.0000
   5851 C          24.8219   38.8175   26.4891 C.3    59  UNL59       0.0000
   5852 C          25.6310   37.7728   28.6194 C.3    59  UNL59       0.0000
   5853 H          25.8525   36.9974   24.0044 H      59  UNL59       0.0000
   5854 H          26.4392   36.0071   26.5361 H      59  UNL59       0.0000
   5855 H          27.6722   38.5293   28.5529 H      59  UNL59       0.0000
   5856 H          25.2878   39.7571   23.4613 H      59  UNL59       0.0000
   5857 H          26.4396   39.7926   28.8026 H      59  UNL59       0.0000
   5858 H          23.6896   38.9343   23.5273 H      59  UNL59       0.0000
   5859 H          26.8624   38.6903   30.1297 H      59  UNL59       0.0000
   5860 H          25.9173   36.7417   28.8668 H      59  UNL59       0.0000
   5861 H          24.0067   40.3621   24.5660 H      59  UNL59       0.0000
   5862 H          24.3222   39.6665   26.9387 H      59  UNL59       0.0000
   5863 H          24.6632   37.9781   29.0928 H      59  UNL59       0.0000
   5864 TI         11.4747   23.2738   24.4071 Ti      1  UNL1        0.0000
   5865 TI         22.3052   26.1550   15.0423 Ti      1  UNL1        0.0000
   5866 TI         15.5714   19.3376   22.5871 Ti      1  UNL1        0.0000
   5867 TI         17.0826   28.4998   16.8141 Ti      1  UNL1        0.0000
   5868 TI         16.0840   30.1781   14.9097 Ti      1  UNL1        0.0000
   5869 TI         17.4596   19.0833   24.5405 Ti      1  UNL1        0.0000
   5870 TI         12.4239   21.5379   22.5156 Ti      1  UNL1        0.0000
   5871 TI         20.3174   26.4576   16.8898 Ti      1  UNL1        0.0000
   5872 H          11.9766   27.1709   24.1877 H       1  UNL1        0.0000
   5873 H          23.1140   22.2490   15.3630 H       1  UNL1        0.0000
   5874 H           7.5148   22.5172   24.0247 H       1  UNL1        0.0000
   5875 H          25.6874   28.1593   15.2430 H       1  UNL1        0.0000
   5876 H          18.4352   15.0487   24.1546 H       1  UNL1        0.0000
   5877 H          12.0255   29.5882   15.2318 H       1  UNL1        0.0000
   5878 H          16.5785   28.5413   13.0366 H       1  UNL1        0.0000
   5879 H          20.4297   25.9123   13.3424 H       1  UNL1        0.0000
   5880 H          17.9695   18.4162   19.0294 H       1  UNL1        0.0000
   5881 H          15.3592   30.3368   20.4331 H       1  UNL1        0.0000
   5882 H           8.3513   24.9265   22.1597 H       1  UNL1        0.0000
   5883 H          25.0600   24.0707   17.3483 H       1  UNL1        0.0000
   5884 H          10.6524   23.4791   18.8259 H       1  UNL1        0.0000
   5885 H          12.9840   32.0059   17.2629 H       1  UNL1        0.0000
   5886 H          16.4763   33.2809   15.7652 H       1  UNL1        0.0000
   5887 H          22.9562   20.2301   16.5655 H       1  UNL1        0.0000
   5888 H          19.1752   28.1799   15.4755 H       1  UNL1        0.0000
   5889 H          14.4907   21.1860   23.8808 H       1  UNL1        0.0000
   5890 H          21.6944   21.0181   22.9302 H       1  UNL1        0.0000
   5891 H          20.2132   20.5491   23.6775 H       1  UNL1        0.0000
   5892 H          22.2685   25.4518   21.8313 H       1  UNL1        0.0000
   5893 H          21.6988   25.8103   20.2127 H       1  UNL1        0.0000
   5894 H          21.2056   16.0633   22.7401 H       1  UNL1        0.0000
   5895 H          19.9264   17.1639   23.1975 H       1  UNL1        0.0000
   5896 C          22.8832   25.4138   17.9058 C.3     1  UNL1        0.0000
   5897 C          10.5142   23.5352   21.5601 C.3     1  UNL1        0.0000
   5898 C          18.1519   18.3269   21.6624 C.3     1  UNL1        0.0000
   5899 C          15.1465   30.4703   17.7735 C.3     1  UNL1        0.0000
   5900 C          23.7793   24.8095   18.9010 C.ar    1  UNL1        0.0000
   5901 C           9.5823   24.1602   20.5830 C.ar    1  UNL1        0.0000
   5902 C          19.0921   17.7126   20.7152 C.ar    1  UNL1        0.0000
   5903 C          14.2567   31.1171   18.7732 C.ar    1  UNL1        0.0000
   5904 C          23.5305   24.8844   20.3074 C.ar    1  UNL1        0.0000
   5905 C           9.7987   24.0402   19.1950 C.ar    1  UNL1        0.0000
   5906 C          20.2216   16.9523   21.1683 C.ar    1  UNL1        0.0000
   5907 C          13.1619   31.8900   18.3283 C.ar    1  UNL1        0.0000
   5908 C          14.5112   30.9463   20.1281 C.ar    1  UNL1        0.0000
   5909 C          18.8444   17.8447   19.3313 C.ar    1  UNL1        0.0000
   5910 C          24.9129   24.1105   18.4253 C.ar    1  UNL1        0.0000
   5911 C           8.4821   24.8526   21.0817 C.ar    1  UNL1        0.0000
   5912 C          23.0950   22.3280   13.2189 C.ar    1  UNL1        0.0000
   5913 C          16.6253   34.1196   13.2439 C.ar    1  UNL1        0.0000
   5914 C          25.5795   28.0912   13.0929 C.ar    1  UNL1        0.0000
   5915 C          12.2211   29.6336   13.0735 C.ar    1  UNL1        0.0000
   5916 C          17.8293   26.1566   18.7787 C.3     1  UNL1        0.0000
   5917 C          13.0732   19.0622   20.6968 C.3     1  UNL1        0.0000
   5918 C          22.9592   23.7829   13.1957 C.3     1  UNL1        0.0000
   5919 C          16.5325   32.6861   13.2064 C.3     1  UNL1        0.0000
   5920 C          24.2816   27.4743   13.1397 C.3     1  UNL1        0.0000
   5921 C          13.6234   30.0479   13.0980 C.3     1  UNL1        0.0000
   5922 C          23.1344   21.6589   14.4486 C.ar    1  UNL1        0.0000
   5923 C          11.9875   27.7593   25.1015 C.ar    1  UNL1        0.0000
   5924 C          26.2348   28.3660   14.3268 C.ar    1  UNL1        0.0000
   5925 C           6.9533   22.3378   24.9400 C.ar    1  UNL1        0.0000
   5926 C          21.6391   21.2934   24.9545 C.ar    1  UNL1        0.0000
   5927 C          11.5239   29.4032   14.2860 C.ar    1  UNL1        0.0000
   5928 C          18.4769   14.5216   25.1036 C.ar    1  UNL1        0.0000
   5929 C          16.6391   34.8708   14.4732 C.ar    1  UNL1        0.0000
   5930 N          16.6941   34.2720   15.7113 N.pl3   1  UNL1        0.0000
   5931 N          21.0601   21.1106   23.7155 N.pl3   1  UNL1        0.0000
   5932 N          22.4496   25.5306   20.8387 N.pl3   1  UNL1        0.0000
   5933 N          20.5526   16.7940   22.4857 N.pl3   1  UNL1        0.0000
   5934 O          21.7069   25.8189   18.2716 O.3     1  UNL1        0.0000
   5935 O          11.2832   22.5843   21.1618 O.3     1  UNL1        0.0000
   5936 O          18.5334   18.4514   22.8835 O.3     1  UNL1        0.0000
   5937 O          15.0806   30.8999   16.5739 O.3     1  UNL1        0.0000
   5938 O          15.9170   29.5130   18.1599 O.3     1  UNL1        0.0000
   5939 O          16.9815   18.6954   21.2569 O.3     1  UNL1        0.0000
   5940 O          23.2951   25.4945   16.6941 O.3     1  UNL1        0.0000
   5941 O          10.4722   23.9714   22.7598 O.3     1  UNL1        0.0000
   5942 O          20.6226   25.2397   15.6951 O.3     1  UNL1        0.0000
   5943 O          12.9764   23.0983   23.2601 O.3     1  UNL1        0.0000
   5944 O          21.5614   27.5270   16.1450 O.3     1  UNL1        0.0000
   5945 O          11.2242   21.3736   23.7528 O.3     1  UNL1        0.0000
   5946 O          15.8307   18.1657   23.8475 O.3     1  UNL1        0.0000
   5947 O          17.5992   30.0611   16.0756 O.3     1  UNL1        0.0000
   5948 O          16.7847   20.4271   23.3834 O.3     1  UNL1        0.0000
   5949 O          15.8929   28.3040   15.5582 O.3     1  UNL1        0.0000
   5950 O          18.2019   17.3114   25.1496 O.3     1  UNL1        0.0000
   5951 O          16.4494   31.9847   14.3016 O.3     1  UNL1        0.0000
   5952 O          19.0041   20.0996   25.1445 O.3     1  UNL1        0.0000
   5953 O          14.2135   30.1489   14.2415 O.3     1  UNL1        0.0000
   5954 O          23.7423   27.1742   14.2877 O.3     1  UNL1        0.0000
   5955 O           9.5879   23.2138   25.0755 O.3     1  UNL1        0.0000
   5956 O          22.9467   24.4198   14.3171 O.3     1  UNL1        0.0000
   5957 O          11.8561   24.9961   25.1568 O.3     1  UNL1        0.0000
   5958 O          18.8144   27.6311   16.1961 O.3     1  UNL1        0.0000
   5959 O          14.1125   20.6273   23.1772 O.3     1  UNL1        0.0000
   5960 O          21.2685   26.4060   13.2633 O.3     1  UNL1        0.0000
   5961 O          16.7009   29.5081   13.0966 O.3     1  UNL1        0.0000
   5962 H          17.8995   22.3193   21.4375 H       1  UNL1        0.0000
   5963 H          14.0003   16.6315   19.9849 H       1  UNL1        0.0000
   5964 H          18.7350   31.4011   18.6815 H       1  UNL1        0.0000
   5965 H          19.0196   24.0768   20.0319 H       1  UNL1        0.0000
   5966 H          14.1037   24.2672   20.8341 H       1  UNL1        0.0000
   5967 H          10.5492   19.1911   19.7506 H       1  UNL1        0.0000
   5968 H          15.4501   22.4211   21.8000 H       1  UNL1        0.0000
   5969 H          15.2304   26.0342   19.4554 H       1  UNL1        0.0000
   5970 H          19.8173   29.2052   18.2900 H       1  UNL1        0.0000
   5971 H           6.1969   29.3978   18.8263 H       1  UNL1        0.0000
   5972 C          17.1888   25.1567   19.6686 C.ar    1  UNL1        0.0000
   5973 C          15.9398   23.1924   21.2068 C.ar    1  UNL1        0.0000
   5974 C          20.3853   30.0100   18.7573 C.ar    1  UNL1        0.0000
   5975 C          12.3464   18.0147   19.9344 C.ar    1  UNL1        0.0000
   5976 C          15.8012   25.2201   19.8972 C.ar    1  UNL1        0.0000
   5977 C          17.3235   23.1337   21.0002 C.ar    1  UNL1        0.0000
   5978 C          19.7713   31.2488   18.9795 C.ar    1  UNL1        0.0000
   5979 C          12.9642   16.7751   19.6854 C.ar    1  UNL1        0.0000
   5980 C          21.7230   29.8013   19.1126 C.ar    1  UNL1        0.0000
   5981 C          11.0086   18.2251   19.5517 C.ar    1  UNL1        0.0000
   5982 C          17.9495   24.1127   20.2257 C.ar    1  UNL1        0.0000
   5983 C          15.1785   24.2336   20.6616 C.ar    1  UNL1        0.0000
   5984 O          19.0697   26.0140   18.4773 O.3     1  UNL1        0.0000
   5985 O          12.4493   20.1401   21.0101 O.3     1  UNL1        0.0000
   5986 O          14.2707   18.8167   21.0859 O.3     1  UNL1        0.0000
   5987 O          17.1066   27.1056   18.3109 O.3     1  UNL1        0.0000
   5988 N          20.3070   31.5221   38.2639 N.pl3  59  UNL59       0.0000
   5989 N          20.7817   30.7427   40.2489 N.pl3  59  UNL59       0.0000
   5990 C          20.9858   30.3270   38.0798 C.2    59  UNL59       0.0000
   5991 C          21.2864   29.8419   39.3265 C.2    59  UNL59       0.0000
   5992 C          22.0828   31.6922   42.1377 C.3    59  UNL59       0.0000
   5993 C          19.8143   32.4067   37.2003 C.3    59  UNL59       0.0000
   5994 C          20.1873   31.7511   39.5837 C.3    59  UNL59       0.0000
   5995 C          20.9964   30.7063   41.7140 C.3    59  UNL59       0.0000
   5996 H          21.2178   29.9310   37.0990 H      59  UNL59       0.0000
   5997 H          21.8045   28.9406   39.6307 H      59  UNL59       0.0000
   5998 H          23.0376   31.4629   41.6475 H      59  UNL59       0.0000
   5999 H          20.6531   32.6907   36.5559 H      59  UNL59       0.0000
   6000 H          21.8050   32.7262   41.8972 H      59  UNL59       0.0000
   6001 H          19.0549   31.8679   36.6219 H      59  UNL59       0.0000
   6002 H          22.2278   31.6238   43.2243 H      59  UNL59       0.0000
   6003 H          21.2827   29.6753   41.9614 H      59  UNL59       0.0000
   6004 H          19.3720   33.2957   37.6606 H      59  UNL59       0.0000
   6005 H          19.6876   32.6001   40.0333 H      59  UNL59       0.0000
   6006 H          20.0286   30.9117   42.1874 H      59  UNL59       0.0000
   6007 TI          6.8401   16.2074   37.5017 Ti      1  UNL1        0.0000
   6008 TI         17.6706   19.0886   28.1369 Ti      1  UNL1        0.0000
   6009 TI         10.9368   12.2712   35.6817 Ti      1  UNL1        0.0000
   6010 TI         12.4480   21.4333   29.9087 Ti      1  UNL1        0.0000
   6011 TI         11.4494   23.1116   28.0043 Ti      1  UNL1        0.0000
   6012 TI         12.8250   12.0168   37.6351 Ti      1  UNL1        0.0000
   6013 TI          7.7893   14.4715   35.6102 Ti      1  UNL1        0.0000
   6014 TI         15.6827   19.3911   29.9844 Ti      1  UNL1        0.0000
   6015 H           7.3420   20.1045   37.2823 H       1  UNL1        0.0000
   6016 H          18.4793   15.1825   28.4576 H       1  UNL1        0.0000
   6017 H           2.8802   15.4508   37.1193 H       1  UNL1        0.0000
   6018 H          21.0527   21.0929   28.3376 H       1  UNL1        0.0000
   6019 H          13.8006    7.9823   37.2492 H       1  UNL1        0.0000
   6020 H           7.3909   22.5217   28.3264 H       1  UNL1        0.0000
   6021 H          11.9438   21.4748   26.1312 H       1  UNL1        0.0000
   6022 H          15.7950   18.8459   26.4370 H       1  UNL1        0.0000
   6023 H          13.3349   11.3497   32.1240 H       1  UNL1        0.0000
   6024 H          10.7245   23.2703   33.5277 H       1  UNL1        0.0000
   6025 H           3.7167   17.8601   35.2543 H       1  UNL1        0.0000
   6026 H          20.4253   17.0043   30.4429 H       1  UNL1        0.0000
   6027 H           6.0178   16.4127   31.9205 H       1  UNL1        0.0000
   6028 H           8.3493   24.9395   30.3576 H       1  UNL1        0.0000
   6029 H          11.8416   26.2145   28.8598 H       1  UNL1        0.0000
   6030 H          18.3215   13.1637   29.6601 H       1  UNL1        0.0000
   6031 H          14.5406   21.1134   28.5701 H       1  UNL1        0.0000
   6032 H           9.8561   14.1196   36.9754 H       1  UNL1        0.0000
   6033 H          17.0597   13.9517   36.0248 H       1  UNL1        0.0000
   6034 H          15.5786   13.4826   36.7721 H       1  UNL1        0.0000
   6035 H          17.6338   18.3853   34.9259 H       1  UNL1        0.0000
   6036 H          17.0641   18.7439   33.3073 H       1  UNL1        0.0000
   6037 H          16.5709    8.9969   35.8347 H       1  UNL1        0.0000
   6038 H          15.2918   10.0974   36.2921 H       1  UNL1        0.0000
   6039 C          18.2486   18.3474   31.0004 C.3     1  UNL1        0.0000
   6040 C           5.8795   16.4688   34.6547 C.3     1  UNL1        0.0000
   6041 C          13.5173   11.2605   34.7570 C.3     1  UNL1        0.0000
   6042 C          10.5118   23.4038   30.8681 C.3     1  UNL1        0.0000
   6043 C          19.1446   17.7430   31.9956 C.ar    1  UNL1        0.0000
   6044 C           4.9476   17.0938   33.6776 C.ar    1  UNL1        0.0000
   6045 C          14.4575   10.6461   33.8098 C.ar    1  UNL1        0.0000
   6046 C           9.6220   24.0506   31.8679 C.ar    1  UNL1        0.0000
   6047 C          18.8959   17.8180   33.4020 C.ar    1  UNL1        0.0000
   6048 C           5.1640   16.9738   32.2896 C.ar    1  UNL1        0.0000
   6049 C          15.5869    9.8858   34.2629 C.ar    1  UNL1        0.0000
   6050 C           8.5273   24.8236   31.4229 C.ar    1  UNL1        0.0000
   6051 C           9.8765   23.8799   33.2227 C.ar    1  UNL1        0.0000
   6052 C          14.2098   10.7783   32.4259 C.ar    1  UNL1        0.0000
   6053 C          20.2783   17.0441   31.5199 C.ar    1  UNL1        0.0000
   6054 C           3.8475   17.7862   34.1763 C.ar    1  UNL1        0.0000
   6055 C          18.4604   15.2616   26.3135 C.ar    1  UNL1        0.0000
   6056 C          11.9906   27.0532   26.3385 C.ar    1  UNL1        0.0000
   6057 C          20.9448   21.0247   26.1875 C.ar    1  UNL1        0.0000
   6058 C           7.5865   22.5672   26.1681 C.ar    1  UNL1        0.0000
   6059 C          13.1947   19.0901   31.8733 C.3     1  UNL1        0.0000
   6060 C           8.4386   11.9958   33.7914 C.3     1  UNL1        0.0000
   6061 C          18.3245   16.7165   26.2903 C.3     1  UNL1        0.0000
   6062 C          11.8979   25.6197   26.3010 C.3     1  UNL1        0.0000
   6063 C          19.6470   20.4079   26.2344 C.3     1  UNL1        0.0000
   6064 C           8.9888   22.9815   26.1926 C.3     1  UNL1        0.0000
   6065 C          18.4997   14.5925   27.5432 C.ar    1  UNL1        0.0000
   6066 C           7.3529   20.6929   38.1962 C.ar    1  UNL1        0.0000
   6067 C          21.6001   21.2995   27.4215 C.ar    1  UNL1        0.0000
   6068 C           2.3187   15.2714   38.0346 C.ar    1  UNL1        0.0000
   6069 C          17.0045   14.2270   38.0491 C.ar    1  UNL1        0.0000
   6070 C           6.8893   22.3367   27.3806 C.ar    1  UNL1        0.0000
   6071 C          13.8422    7.4551   38.1982 C.ar    1  UNL1        0.0000
   6072 C          12.0044   27.8044   27.5678 C.ar    1  UNL1        0.0000
   6073 N          12.0595   27.2056   28.8059 N.pl3   1  UNL1        0.0000
   6074 N          16.4254   14.0442   36.8101 N.pl3   1  UNL1        0.0000
   6075 N          17.8150   18.4642   33.9333 N.pl3   1  UNL1        0.0000
   6076 N          15.9179    9.7276   35.5803 N.pl3   1  UNL1        0.0000
   6077 O          17.0723   18.7524   31.3662 O.3     1  UNL1        0.0000
   6078 O           6.6485   15.5179   34.2564 O.3     1  UNL1        0.0000
   6079 O          13.8987   11.3850   35.9781 O.3     1  UNL1        0.0000
   6080 O          10.4460   23.8335   29.6685 O.3     1  UNL1        0.0000
   6081 O          11.2823   22.4466   31.2545 O.3     1  UNL1        0.0000
   6082 O          12.3469   11.6289   34.3515 O.3     1  UNL1        0.0000
   6083 O          18.6605   18.4281   29.7887 O.3     1  UNL1        0.0000
   6084 O           5.8375   16.9050   35.8544 O.3     1  UNL1        0.0000
   6085 O          15.9880   18.1732   28.7897 O.3     1  UNL1        0.0000
   6086 O           8.3417   16.0318   36.3548 O.3     1  UNL1        0.0000
   6087 O          16.9268   20.4605   29.2397 O.3     1  UNL1        0.0000
   6088 O           6.5896   14.3072   36.8474 O.3     1  UNL1        0.0000
   6089 O          11.1961   11.0992   36.9422 O.3     1  UNL1        0.0000
   6090 O          12.9645   22.9946   29.1702 O.3     1  UNL1        0.0000
   6091 O          12.1500   13.3607   36.4780 O.3     1  UNL1        0.0000
   6092 O          11.2583   21.2375   28.6528 O.3     1  UNL1        0.0000
   6093 O          13.5673   10.2450   38.2442 O.3     1  UNL1        0.0000
   6094 O          11.8148   24.9182   27.3962 O.3     1  UNL1        0.0000
   6095 O          14.3694   13.0332   38.2391 O.3     1  UNL1        0.0000
   6096 O           9.5788   23.0825   27.3361 O.3     1  UNL1        0.0000
   6097 O          19.1076   20.1077   27.3823 O.3     1  UNL1        0.0000
   6098 O           4.9533   16.1473   38.1702 O.3     1  UNL1        0.0000
   6099 O          18.3121   17.3534   27.4117 O.3     1  UNL1        0.0000
   6100 O           7.2215   17.9297   38.2514 O.3     1  UNL1        0.0000
   6101 O          14.1798   20.5647   29.2907 O.3     1  UNL1        0.0000
   6102 O           9.4778   13.5609   36.2718 O.3     1  UNL1        0.0000
   6103 O          16.6339   19.3396   26.3579 O.3     1  UNL1        0.0000
   6104 O          12.0662   22.4416   26.1912 O.3     1  UNL1        0.0000
   6105 H          13.2648   15.2528   34.5321 H       1  UNL1        0.0000
   6106 H           9.3656    9.5650   33.0795 H       1  UNL1        0.0000
   6107 H          14.1004   24.3347   31.7762 H       1  UNL1        0.0000
   6108 H          14.3849   17.0104   33.1265 H       1  UNL1        0.0000
   6109 H           9.4691   17.2008   33.9287 H       1  UNL1        0.0000
   6110 H           5.9146   12.1247   32.8452 H       1  UNL1        0.0000
   6111 H          10.8154   15.3546   34.8946 H       1  UNL1        0.0000
   6112 H          10.5958   18.9677   32.5501 H       1  UNL1        0.0000
   6113 H          15.1827   22.1387   31.3846 H       1  UNL1        0.0000
   6114 H           1.5623   22.3314   31.9209 H       1  UNL1        0.0000
   6115 C          12.5541   18.0903   32.7633 C.ar    1  UNL1        0.0000
   6116 C          11.3051   16.1259   34.3014 C.ar    1  UNL1        0.0000
   6117 C          15.7506   22.9436   31.8520 C.ar    1  UNL1        0.0000
   6118 C           7.7118   10.9483   33.0290 C.ar    1  UNL1        0.0000
   6119 C          11.1665   18.1537   32.9918 C.ar    1  UNL1        0.0000
   6120 C          12.6889   16.0672   34.0948 C.ar    1  UNL1        0.0000
   6121 C          15.1367   24.1823   32.0741 C.ar    1  UNL1        0.0000
   6122 C           8.3295    9.7086   32.7800 C.ar    1  UNL1        0.0000
   6123 C          17.0884   22.7348   32.2073 C.ar    1  UNL1        0.0000
   6124 C           6.3740   11.1586   32.6463 C.ar    1  UNL1        0.0000
   6125 C          13.3148   17.0463   33.3203 C.ar    1  UNL1        0.0000
   6126 C          10.5438   17.1672   33.7562 C.ar    1  UNL1        0.0000
   6127 O          14.4351   18.9476   31.5719 O.3     1  UNL1        0.0000
   6128 O           7.8147   13.0737   34.1047 O.3     1  UNL1        0.0000
   6129 O           9.6360   11.7503   34.1805 O.3     1  UNL1        0.0000
   6130 O          12.4720   20.0392   31.4055 O.3     1  UNL1        0.0000
   6131 N          15.6723   24.4557   51.3585 N.pl3  59  UNL59       0.0000
   6132 N          16.1470   23.6762   53.3435 N.pl3  59  UNL59       0.0000
   6133 C          16.3511   23.2605   51.1745 C.2    59  UNL59       0.0000
   6134 C          16.6517   22.7755   52.4211 C.2    59  UNL59       0.0000
   6135 C          17.4482   24.6257   55.2324 C.3    59  UNL59       0.0000
   6136 C          15.1797   25.3403   50.2949 C.3    59  UNL59       0.0000
   6137 C          15.5526   24.6846   52.6783 C.3    59  UNL59       0.0000
   6138 C          16.3617   23.6399   54.8086 C.3    59  UNL59       0.0000
   6139 H          16.5832   22.8645   50.1936 H      59  UNL59       0.0000
   6140 H          17.1699   21.8742   52.7253 H      59  UNL59       0.0000
   6141 H          18.4029   24.3964   54.7421 H      59  UNL59       0.0000
   6142 H          16.0185   25.6242   49.6505 H      59  UNL59       0.0000
   6143 H          17.1703   25.6597   54.9918 H      59  UNL59       0.0000
   6144 H          14.4203   24.8015   49.7165 H      59  UNL59       0.0000
   6145 H          17.5931   24.5574   56.3189 H      59  UNL59       0.0000
   6146 H          16.6480   22.6088   55.0560 H      59  UNL59       0.0000
   6147 H          14.7374   26.2293   50.7552 H      59  UNL59       0.0000
   6148 H          15.0529   25.5336   53.1279 H      59  UNL59       0.0000
   6149 H          15.3939   23.8452   55.2820 H      59  UNL59       0.0000
   6150 TI          2.2054    9.1409   50.5963 Ti      1  UNL1        0.0000
   6151 TI         13.0359   12.0222   41.2315 Ti      1  UNL1        0.0000
   6152 TI          6.3021    5.2047   48.7763 Ti      1  UNL1        0.0000
   6153 TI          7.8133   14.3669   43.0033 Ti      1  UNL1        0.0000
   6154 TI          6.8147   16.0452   41.0989 Ti      1  UNL1        0.0000
   6155 TI          8.1903    4.9504   50.7297 Ti      1  UNL1        0.0000
   6156 TI          3.1546    7.4051   48.7048 Ti      1  UNL1        0.0000
   6157 TI         11.0481   12.3247   43.0790 Ti      1  UNL1        0.0000
   6158 H           2.7073   13.0380   50.3769 H      59  UNL59       0.0000
   6159 H          13.8447    8.1161   41.5522 H       1  UNL1        0.0000
   6160 H          -1.7545    8.3843   50.2139 H      59  UNL59       0.0000
   6161 H          16.4181   14.0265   41.4322 H       1  UNL1        0.0000
   6162 H           9.1659    0.9159   50.3438 H      59  UNL59       0.0000
   6163 H           2.7562   15.4553   41.4210 H       1  UNL1        0.0000
   6164 H           7.3092   14.4084   39.2258 H       1  UNL1        0.0000
   6165 H          11.1604   11.7795   39.5316 H       1  UNL1        0.0000
   6166 H           8.7002    4.2833   45.2186 H       1  UNL1        0.0000
   6167 H           6.0899   16.2039   46.6223 H       1  UNL1        0.0000
   6168 H          -0.9180   10.7937   48.3489 H       1  UNL1        0.0000
   6169 H          15.7907    9.9378   43.5375 H       1  UNL1        0.0000
   6170 H           1.3831    9.3462   45.0151 H       1  UNL1        0.0000
   6171 H           3.7147   17.8730   43.4522 H       1  UNL1        0.0000
   6172 H           7.2070   19.1480   41.9544 H       1  UNL1        0.0000
   6173 H          13.6869    6.0973   42.7547 H       1  UNL1        0.0000
   6174 H           9.9059   14.0470   41.6647 H       1  UNL1        0.0000
   6175 H           5.2214    7.0531   50.0700 H       1  UNL1        0.0000
   6176 H          12.4251    6.8853   49.1194 H      59  UNL59       0.0000
   6177 H          10.9439    6.4162   49.8667 H      59  UNL59       0.0000
   6178 H          12.9992   11.3189   48.0205 H       1  UNL1        0.0000
   6179 H          12.4295   11.6775   46.4019 H       1  UNL1        0.0000
   6180 H          11.9363    1.9304   48.9293 H       1  UNL1        0.0000
   6181 H          10.6571    3.0310   49.3867 H       1  UNL1        0.0000
   6182 C          13.6140   11.2809   44.0950 C.3     1  UNL1        0.0000
   6183 C           1.2449    9.4023   47.7493 C.3     1  UNL1        0.0000
   6184 C           8.8826    4.1940   47.8516 C.3     1  UNL1        0.0000
   6185 C           5.8772   16.3374   43.9627 C.3     1  UNL1        0.0000
   6186 C          14.5100   10.6766   45.0902 C.ar    1  UNL1        0.0000
   6187 C           0.3130   10.0273   46.7722 C.ar    1  UNL1        0.0000
   6188 C           9.8228    3.5797   46.9044 C.ar    1  UNL1        0.0000
   6189 C           4.9874   16.9842   44.9625 C.ar    1  UNL1        0.0000
   6190 C          14.2612   10.7515   46.4967 C.ar    1  UNL1        0.0000
   6191 C           0.5294    9.9074   45.3842 C.ar    1  UNL1        0.0000
   6192 C          10.9523    2.8194   47.3575 C.ar    1  UNL1        0.0000
   6193 C           3.8927   17.7571   44.5175 C.ar    1  UNL1        0.0000
   6194 C           5.2419   16.8134   46.3173 C.ar    1  UNL1        0.0000
   6195 C           9.5751    3.7118   45.5205 C.ar    1  UNL1        0.0000
   6196 C          15.6436    9.9776   44.6145 C.ar    1  UNL1        0.0000
   6197 C          -0.7872   10.7198   47.2709 C.ar    1  UNL1        0.0000
   6198 C          13.8257    8.1952   39.4081 C.ar    1  UNL1        0.0000
   6199 C           7.3560   19.9868   39.4331 C.ar    1  UNL1        0.0000
   6200 C          16.3102   13.9583   39.2821 C.ar    1  UNL1        0.0000
   6201 C           2.9518   15.5007   39.2627 C.ar    1  UNL1        0.0000
   6202 C           8.5600   12.0237   44.9679 C.3     1  UNL1        0.0000
   6203 C           3.8039    4.9293   46.8860 C.3     1  UNL1        0.0000
   6204 C          13.6899    9.6500   39.3849 C.3     1  UNL1        0.0000
   6205 C           7.2632   18.5532   39.3956 C.3     1  UNL1        0.0000
   6206 C          15.0123   13.3415   39.3290 C.3     1  UNL1        0.0000
   6207 C           4.3541   15.9151   39.2872 C.3     1  UNL1        0.0000
   6208 C          13.8651    7.5261   40.6378 C.ar    1  UNL1        0.0000
   6209 C           2.7182   13.6264   51.2908 C.2    59  UNL59       0.0000
   6210 C          16.9655   14.2331   40.5161 C.ar    1  UNL1        0.0000
   6211 C          -2.3159    8.2049   51.1292 C.2    59  UNL59       0.0000
   6212 C          12.3698    7.1606   51.1437 C.2    59  UNL59       0.0000
   6213 C           2.2546   15.2703   40.4752 C.ar    1  UNL1        0.0000
   6214 C           9.2076    0.3887   51.2928 C.2    59  UNL59       0.0000
   6215 C           7.3698   20.7380   40.6624 C.ar    1  UNL1        0.0000
   6216 N           7.4248   20.1391   41.9006 N.pl3   1  UNL1        0.0000
   6217 N          11.7908    6.9777   49.9048 N.pl3  59  UNL59       0.0000
   6218 N          13.1803   11.3978   47.0279 N.pl3   1  UNL1        0.0000
   6219 N          11.2833    2.6611   48.6749 N.pl3   1  UNL1        0.0000
   6220 O          12.4376   11.6860   44.4608 O.3     1  UNL1        0.0000
   6221 O           2.0139    8.4515   47.3510 O.3     1  UNL1        0.0000
   6222 O           9.2641    4.3185   49.0727 O.3     1  UNL1        0.0000
   6223 O           5.8113   16.7671   42.7631 O.3     1  UNL1        0.0000
   6224 O           6.6477   15.3802   44.3491 O.3     1  UNL1        0.0000
   6225 O           7.7122    4.5625   47.4461 O.3     1  UNL1        0.0000
   6226 O          14.0258   11.3617   42.8833 O.3     1  UNL1        0.0000
   6227 O           1.2029    9.8386   48.9490 O.3     1  UNL1        0.0000
   6228 O          11.3533   11.1068   41.8843 O.3     1  UNL1        0.0000
   6229 O           3.7071    8.9654   49.4494 O.3     1  UNL1        0.0000
   6230 O          12.2921   13.3941   42.3343 O.3     1  UNL1        0.0000
   6231 O           1.9549    7.2407   49.9420 O.3     1  UNL1        0.0000
   6232 O           6.5614    4.0328   50.0368 O.3     1  UNL1        0.0000
   6233 O           8.3299   15.9282   42.2648 O.3     1  UNL1        0.0000
   6234 O           7.5154    6.2943   49.5726 O.3     1  UNL1        0.0000
   6235 O           6.6236   14.1711   41.7474 O.3     1  UNL1        0.0000
   6236 O           8.9327    3.1785   51.3388 O.3     1  UNL1        0.0000
   6237 O           7.1801   17.8518   40.4908 O.3     1  UNL1        0.0000
   6238 O           9.7348    5.9667   51.3337 O.3     1  UNL1        0.0000
   6239 O           4.9442   16.0161   40.4307 O.3     1  UNL1        0.0000
   6240 O          14.4730   13.0413   40.4770 O.3     1  UNL1        0.0000
   6241 O           0.3187    9.0809   51.2648 O.3     1  UNL1        0.0000
   6242 O          13.6774   10.2870   40.5064 O.3     1  UNL1        0.0000
   6243 O           2.5869   10.8632   51.3460 O.3     1  UNL1        0.0000
   6244 O           9.5451   13.4983   42.3854 O.3     1  UNL1        0.0000
   6245 O           4.8432    6.4944   49.3664 O.3     1  UNL1        0.0000
   6246 O          11.9992   12.2731   39.4526 O.3     1  UNL1        0.0000
   6247 O           7.4316   15.3752   39.2858 O.3     1  UNL1        0.0000
   6248 H           8.6302    8.1864   47.6267 H       1  UNL1        0.0000
   6249 H           4.7310    2.4986   46.1741 H       1  UNL1        0.0000
   6250 H           9.4657   17.2683   44.8708 H       1  UNL1        0.0000
   6251 H           9.7503    9.9440   46.2211 H       1  UNL1        0.0000
   6252 H           4.8344   10.1343   47.0234 H       1  UNL1        0.0000
   6253 H           1.2799    5.0583   45.9398 H       1  UNL1        0.0000
   6254 H           6.1808    8.2882   47.9892 H       1  UNL1        0.0000
   6255 H           5.9611   11.9013   45.6447 H       1  UNL1        0.0000
   6256 H          10.5480   15.0723   44.4792 H       1  UNL1        0.0000
   6257 H          -3.0724   15.2650   45.0155 H       1  UNL1        0.0000
   6258 C           7.9195   11.0239   45.8579 C.ar    1  UNL1        0.0000
   6259 C           6.6705    9.0595   47.3960 C.ar    1  UNL1        0.0000
   6260 C          11.1160   15.8771   44.9466 C.ar    1  UNL1        0.0000
   6261 C           3.0771    3.8819   46.1236 C.ar    1  UNL1        0.0000
   6262 C           6.5319   11.0872   46.0864 C.ar    1  UNL1        0.0000
   6263 C           8.0542    9.0008   47.1894 C.ar    1  UNL1        0.0000
   6264 C          10.5020   17.1159   45.1687 C.ar    1  UNL1        0.0000
   6265 C           3.6949    2.6422   45.8746 C.ar    1  UNL1        0.0000
   6266 C          12.4538   15.6684   45.3019 C.ar    1  UNL1        0.0000
   6267 C           1.7394    4.0922   45.7409 C.ar    1  UNL1        0.0000
   6268 C           8.6802    9.9799   46.4150 C.ar    1  UNL1        0.0000
   6269 C           5.9092   10.1008   46.8508 C.ar    1  UNL1        0.0000
   6270 O           9.8004   11.8811   44.6665 O.3     1  UNL1        0.0000
   6271 O           3.1800    6.0073   47.1993 O.3     1  UNL1        0.0000
   6272 O           5.0014    4.6838   47.2751 O.3     1  UNL1        0.0000
   6273 O           7.8373   12.9727   44.5001 O.3     1  UNL1        0.0000
   6274 N          11.0377   17.3892   64.4531 N.pl3  59  UNL59       0.0000
   6275 N          11.5124   16.6098   66.4381 N.pl3  59  UNL59       0.0000
   6276 C          11.7165   16.1941   64.2691 C.2    59  UNL59       0.0000
   6277 C          12.0171   15.7091   65.5157 C.2    59  UNL59       0.0000
   6278 C          12.8135   17.5593   68.3270 C.3    59  UNL59       0.0000
   6279 C          10.5450   18.2738   63.3896 C.3    59  UNL59       0.0000
   6280 C          10.9180   17.6182   65.7729 C.3    59  UNL59       0.0000
   6281 C          11.7271   16.5735   67.9032 C.3    59  UNL59       0.0000
   6282 H          11.9485   15.7981   63.2882 H      59  UNL59       0.0000
   6283 H          12.5353   14.8078   65.8199 H      59  UNL59       0.0000
   6284 H          13.7683   17.3300   67.8367 H      59  UNL59       0.0000
   6285 H          11.3838   18.5578   62.7451 H      59  UNL59       0.0000
   6286 H          12.5357   18.5933   68.0864 H      59  UNL59       0.0000
   6287 H           9.7856   17.7350   62.8111 H      59  UNL59       0.0000
   6288 H          12.9585   17.4910   69.4135 H      59  UNL59       0.0000
   6289 H          12.0134   15.5424   68.1506 H      59  UNL59       0.0000
   6290 H          10.1027   19.1628   63.8498 H      59  UNL59       0.0000
   6291 H          10.4183   18.4672   66.2225 H      59  UNL59       0.0000
   6292 H          10.7593   16.7788   68.3766 H      59  UNL59       0.0000
   6293 TI          9.5923   44.9528   11.2560 Ti      1  UNL1        0.0000
   6294 TI         20.4228   47.8340    1.8912 Ti      1  UNL1        0.0000
   6295 TI         13.6890   41.0166    9.4360 Ti      1  UNL1        0.0000
   6296 TI         15.2002   50.1787    3.6630 Ti      1  UNL1        0.0000
   6297 TI         14.2017   51.8570    1.7586 Ti      1  UNL1        0.0000
   6298 TI         15.5772   40.7622   11.3894 Ti      1  UNL1        0.0000
   6299 TI         10.5415   43.2169    9.3645 Ti      1  UNL1        0.0000
   6300 TI         18.4350   48.1365    3.7386 Ti      1  UNL1        0.0000
   6301 H          10.0942   48.8498   11.0365 H       1  UNL1        0.0000
   6302 H          21.2316   43.9279    2.2119 H       1  UNL1        0.0000
   6303 H           5.6324   44.1961   10.8735 H       1  UNL1        0.0000
   6304 H          23.8050   49.8383    2.0918 H       1  UNL1        0.0000
   6305 H          16.5528   36.7277   11.0034 H       1  UNL1        0.0000
   6306 H          10.1431   51.2671    2.0806 H       1  UNL1        0.0000
   6307 H          14.6961   50.2202   -0.1145 H       1  UNL1        0.0000
   6308 H          18.5473   47.5913    0.1912 H       1  UNL1        0.0000
   6309 H          16.0871   40.0951    5.8783 H       1  UNL1        0.0000
   6310 H          13.4768   52.0157    7.2819 H       1  UNL1        0.0000
   6311 H           6.4689   46.6055    9.0086 H       1  UNL1        0.0000
   6312 H          23.1776   45.7496    4.1972 H       1  UNL1        0.0000
   6313 H           8.7700   45.1581    5.6748 H       1  UNL1        0.0000
   6314 H          11.1016   53.6849    4.1118 H       1  UNL1        0.0000
   6315 H          14.5939   54.9598    2.6140 H       1  UNL1        0.0000
   6316 H          21.0738   41.9091    3.4143 H       1  UNL1        0.0000
   6317 H          17.2929   49.8588    2.3243 H       1  UNL1        0.0000
   6318 H          12.6083   42.8650   10.7296 H       1  UNL1        0.0000
   6319 H          19.8120   42.6971    9.7790 H       1  UNL1        0.0000
   6320 H          18.3309   42.2280   10.5264 H       1  UNL1        0.0000
   6321 H          20.3861   47.1307    8.6801 H       1  UNL1        0.0000
   6322 H          19.8164   47.4893    7.0616 H       1  UNL1        0.0000
   6323 H          19.3232   37.7422    9.5890 H       1  UNL1        0.0000
   6324 H          18.0440   38.8428   10.0464 H       1  UNL1        0.0000
   6325 C          21.0009   47.0927    4.7547 C.3     1  UNL1        0.0000
   6326 C           8.6318   45.2141    8.4089 C.3     1  UNL1        0.0000
   6327 C          16.2695   40.0059    8.5113 C.3     1  UNL1        0.0000
   6328 C          13.2641   52.1492    4.6223 C.3     1  UNL1        0.0000
   6329 C          21.8969   46.4884    5.7499 C.ar    1  UNL1        0.0000
   6330 C           7.6999   45.8392    7.4319 C.ar    1  UNL1        0.0000
   6331 C          17.2097   39.3915    7.5641 C.ar    1  UNL1        0.0000
   6332 C          12.3743   52.7960    5.6221 C.2     1  UNL1        0.0000
   6333 C          21.6481   46.5633    7.1563 C.ar    1  UNL1        0.0000
   6334 C           7.9163   45.7192    6.0439 C.ar    1  UNL1        0.0000
   6335 C          18.3392   38.6312    8.0172 C.ar    1  UNL1        0.0000
   6336 C          11.2796   53.5690    5.1772 C.3     1  UNL1        0.0000
   6337 C          12.6288   52.6252    6.9770 C.2     1  UNL1        0.0000
   6338 C          16.9620   39.5236    6.1802 C.ar    1  UNL1        0.0000
   6339 C          23.0306   45.7894    5.2742 C.ar    1  UNL1        0.0000
   6340 C           6.5997   46.5316    7.9306 C.ar    1  UNL1        0.0000
   6341 C          21.2126   44.0070    0.0678 C.2     1  UNL1        0.0000
   6342 C          14.7429   55.7986    0.0928 C.2     1  UNL1        0.0000
   6343 C          23.6971   49.7701   -0.0582 C.2     1  UNL1        0.0000
   6344 C          10.3387   51.3125   -0.0776 C.2     1  UNL1        0.0000
   6345 C          15.9469   47.8355    5.6276 C.3     1  UNL1        0.0000
   6346 C          11.1909   40.7411    7.5457 C.3     1  UNL1        0.0000
   6347 C          21.0768   45.4618    0.0446 C.2     1  UNL1        0.0000
   6348 C          14.6501   54.3651    0.0553 C.2     1  UNL1        0.0000
   6349 C          22.3992   49.1533   -0.0114 C.2     1  UNL1        0.0000
   6350 C          11.7410   51.7269   -0.0532 C.2     1  UNL1        0.0000
   6351 C          21.2520   43.3379    1.2974 C.2     1  UNL1        0.0000
   6352 C          10.1052   49.4382   11.9504 C.3     1  UNL1        0.0000
   6353 C          24.3524   50.0449    1.1757 C.2     1  UNL1        0.0000
   6354 C           5.0710   44.0168   11.7889 C.ar    1  UNL1        0.0000
   6355 C          19.7567   42.9724   11.8034 C.ar    1  UNL1        0.0000
   6356 C           9.6415   51.0821    1.1348 C.2     1  UNL1        0.0000
   6357 C          16.5945   36.2005   11.9525 C.ar    1  UNL1        0.0000
   6358 C          14.7567   56.5498    1.3220 C.3     1  UNL1        0.0000
   6359 N          14.8117   55.9509    2.5602 N.3     1  UNL1        0.0000
   6360 N          19.1777   42.7896   10.5644 N.pl3   1  UNL1        0.0000
   6361 N          20.5672   47.2096    7.6876 N.pl3   1  UNL1        0.0000
   6362 N          18.6702   38.4730    9.3345 N.pl3   1  UNL1        0.0000
   6363 O          19.8245   47.4978    5.1205 O.3     1  UNL1        0.0000
   6364 O           9.4008   44.2633    8.0107 O.3     1  UNL1        0.0000
   6365 O          16.6510   40.1303    9.7324 O.3     1  UNL1        0.0000
   6366 O          13.1982   52.5789    3.4227 O.3     1  UNL1        0.0000
   6367 O          14.0346   51.1920    5.0088 O.3     1  UNL1        0.0000
   6368 O          15.0991   40.3743    8.1058 O.3     1  UNL1        0.0000
   6369 O          21.4127   47.1735    3.5430 O.3     1  UNL1        0.0000
   6370 O           8.5898   45.6504    9.6087 O.3     1  UNL1        0.0000
   6371 O          18.7402   46.9186    2.5439 O.3     1  UNL1        0.0000
   6372 O          11.0940   44.7772   10.1090 O.3     1  UNL1        0.0000
   6373 O          19.6790   49.2059    2.9939 O.3     1  UNL1        0.0000
   6374 O           9.3418   43.0525   10.6017 O.3     1  UNL1        0.0000
   6375 O          13.9483   39.8446   10.6964 O.3     1  UNL1        0.0000
   6376 O          15.7168   51.7400    2.9245 O.3     1  UNL1        0.0000
   6377 O          14.9023   42.1061   10.2322 O.3     1  UNL1        0.0000
   6378 O          14.0105   49.9829    2.4071 O.3     1  UNL1        0.0000
   6379 O          16.3196   38.9904   11.9985 O.3     1  UNL1        0.0000
   6380 O          14.5670   53.6636    1.1505 O.2     1  UNL1        0.0000
   6381 O          17.1217   41.7785   11.9933 O.3     1  UNL1        0.0000
   6382 O          12.3311   51.8279    1.0904 O.2     1  UNL1        0.0000
   6383 O          21.8599   48.8531    1.1366 O.2     1  UNL1        0.0000
   6384 O           7.7056   44.8927   11.9244 O.3     1  UNL1        0.0000
   6385 O          21.0643   46.0988    1.1660 O.2     1  UNL1        0.0000
   6386 O           9.9738   46.6751   12.0057 O.2     1  UNL1        0.0000
   6387 O          16.9320   49.3101    3.0450 O.3     1  UNL1        0.0000
   6388 O          12.2301   42.3063   10.0260 O.3     1  UNL1        0.0000
   6389 O          19.3861   48.0850    0.1122 O.3     1  UNL1        0.0000
   6390 O          14.8185   51.1870   -0.0545 O.3     1  UNL1        0.0000
   6391 H          16.0171   43.9982    8.2864 H       1  UNL1        0.0000
   6392 H          12.1179   38.3104    6.8338 H       1  UNL1        0.0000
   6393 H          16.8527   53.0801    5.5304 H      59  UNL59       0.0000
   6394 H          17.1372   45.7558    6.8808 H       1  UNL1        0.0000
   6395 H          12.2213   45.9462    7.6830 H       1  UNL1        0.0000
   6396 H           8.6668   40.8701    6.5995 H       1  UNL1        0.0000
   6397 H          13.5677   44.1000    8.6489 H       1  UNL1        0.0000
   6398 H          13.3481   47.7131    6.3043 H       1  UNL1        0.0000
   6399 H          17.9349   50.8841    5.1388 H      59  UNL59       0.0000
   6400 H           4.3145   51.0768    5.6752 H      59  UNL59       0.0000
   6401 C          15.3064   46.8357    6.5175 C.ar    1  UNL1        0.0000
   6402 C          14.0574   44.8713    8.0557 C.ar    1  UNL1        0.0000
   6403 C          18.5029   51.6889    5.6062 C.2    59  UNL59       0.0000
   6404 C          10.4640   39.6937    6.7832 C.ar    1  UNL1        0.0000
   6405 C          13.9188   46.8990    6.7461 C.ar    1  UNL1        0.0000
   6406 C          15.4411   44.8126    7.8490 C.ar    1  UNL1        0.0000
   6407 C          17.8889   52.9277    5.8284 C.3    59  UNL59       0.0000
   6408 C          11.0818   38.4540    6.5342 C.ar    1  UNL1        0.0000
   6409 C          19.8407   51.4802    5.9615 C.2    59  UNL59       0.0000
   6410 C           9.1263   39.9040    6.4006 C.ar    1  UNL1        0.0000
   6411 C          16.0671   45.7917    7.0746 C.ar    1  UNL1        0.0000
   6412 C          13.2961   45.9126    7.5105 C.ar    1  UNL1        0.0000
   6413 O          17.1873   47.6930    5.3262 O.3     1  UNL1        0.0000
   6414 O          10.5670   41.8191    7.8590 O.3     1  UNL1        0.0000
   6415 O          12.3883   40.4956    7.9348 O.3     1  UNL1        0.0000
   6416 O          15.2242   48.7846    5.1598 O.3     1  UNL1        0.0000
   6417 N          18.4246   53.2010   25.1127 N.pl3  59  UNL59       0.0000
   6418 N          18.8993   52.4216   27.0978 N.pl3  59  UNL59       0.0000
   6419 C          19.1034   52.0059   24.9287 C.2    59  UNL59       0.0000
   6420 C          19.4040   51.5209   26.1754 C.2    59  UNL59       0.0000
   6421 C          20.2005   53.3711   28.9866 C.3    59  UNL59       0.0000
   6422 C          17.9320   54.0856   24.0492 C.3    59  UNL59       0.0000
   6423 C          18.3049   53.4300   26.4326 C.3    59  UNL59       0.0000
   6424 C          19.1140   52.3853   28.5628 C.3    59  UNL59       0.0000
   6425 H          19.3355   51.6099   23.9479 H      59  UNL59       0.0000
   6426 H          19.9222   50.6196   26.4796 H      59  UNL59       0.0000
   6427 H          21.1552   53.1418   28.4964 H      59  UNL59       0.0000
   6428 H          18.7707   54.3696   23.4048 H      59  UNL59       0.0000
   6429 H          19.9226   54.4051   28.7461 H      59  UNL59       0.0000
   6430 H          17.1725   53.5469   23.4708 H      59  UNL59       0.0000
   6431 H          20.3454   53.3028   30.0731 H      59  UNL59       0.0000
   6432 H          19.4003   51.3542   28.8103 H      59  UNL59       0.0000
   6433 H          17.4897   54.9746   24.5094 H      59  UNL59       0.0000
   6434 H          17.8052   54.2790   26.8822 H      59  UNL59       0.0000
   6435 H          18.1462   52.5906   29.0363 H      59  UNL59       0.0000
   6436 TI          4.9577   37.8863   24.3506 Ti      1  UNL1        0.0000
   6437 TI         15.7882   40.7675   14.9858 Ti      1  UNL1        0.0000
   6438 TI          9.0544   33.9501   22.5306 Ti      1  UNL1        0.0000
   6439 TI         10.5656   43.1123   16.7576 Ti      1  UNL1        0.0000
   6440 TI          9.5670   44.7906   14.8532 Ti      1  UNL1        0.0000
   6441 TI         10.9426   33.6958   24.4840 Ti      1  UNL1        0.0000
   6442 TI          5.9069   36.1504   22.4591 Ti      1  UNL1        0.0000
   6443 TI         13.8004   41.0701   16.8332 Ti      1  UNL1        0.0000
   6444 H           5.4596   41.7834   24.1311 H       1  UNL1        0.0000
   6445 H          16.5970   36.8615   15.3065 H       1  UNL1        0.0000
   6446 H           0.9978   37.1297   23.9681 H       1  UNL1        0.0000
   6447 H          19.1703   42.7718   15.1864 H       1  UNL1        0.0000
   6448 H          11.9182   29.6612   24.0981 H       1  UNL1        0.0000
   6449 H           5.5085   44.2007   15.1752 H       1  UNL1        0.0000
   6450 H          10.0615   43.1538   12.9801 H       1  UNL1        0.0000
   6451 H          13.9127   40.5248   13.2858 H       1  UNL1        0.0000
   6452 H          11.4525   33.0287   18.9729 H       1  UNL1        0.0000
   6453 H           8.8421   44.9493   20.3765 H       1  UNL1        0.0000
   6454 H           1.8343   39.5391   22.1032 H       1  UNL1        0.0000
   6455 H          18.5429   38.6832   17.2918 H       1  UNL1        0.0000
   6456 H           4.1354   38.0916   18.7694 H       1  UNL1        0.0000
   6457 H           6.4669   46.6184   17.2064 H       1  UNL1        0.0000
   6458 H           9.9593   47.8934   15.7087 H       1  UNL1        0.0000
   6459 H          16.4391   34.8426   16.5090 H       1  UNL1        0.0000
   6460 H          12.6582   42.7924   15.4189 H       1  UNL1        0.0000
   6461 H           7.9737   35.7985   23.8242 H       1  UNL1        0.0000
   6462 H          15.1773   35.6306   22.8736 H       1  UNL1        0.0000
   6463 H          13.6962   35.1616   23.6210 H       1  UNL1        0.0000
   6464 H          15.7515   40.0643   21.7747 H       1  UNL1        0.0000
   6465 H          15.1817   40.4229   20.1562 H       1  UNL1        0.0000
   6466 H          14.6885   30.6758   22.6836 H       1  UNL1        0.0000
   6467 H          13.4094   31.7764   23.1410 H       1  UNL1        0.0000
   6468 C          16.3662   40.0263   17.8493 C.3     1  UNL1        0.0000
   6469 C           3.9972   38.1477   21.5036 C.3     1  UNL1        0.0000
   6470 C          11.6349   32.9394   21.6059 C.3     1  UNL1        0.0000
   6471 C           8.6295   45.0828   17.7169 C.3     1  UNL1        0.0000
   6472 C          17.2622   39.4220   18.8445 C.ar    1  UNL1        0.0000
   6473 C           3.0653   38.7727   20.5265 C.ar    1  UNL1        0.0000
   6474 C          12.5751   32.3251   20.6587 C.ar    1  UNL1        0.0000
   6475 C           7.7396   45.7296   18.7167 C.2     1  UNL1        0.0000
   6476 C          17.0135   39.4969   20.2509 C.ar    1  UNL1        0.0000
   6477 C           3.2816   38.6527   19.1385 C.ar    1  UNL1        0.0000
   6478 C          13.7045   31.5648   21.1118 C.ar    1  UNL1        0.0000
   6479 C           6.6449   46.5025   18.2718 C.3     1  UNL1        0.0000
   6480 C           7.9941   45.5588   20.0716 C.2     1  UNL1        0.0000
   6481 C          12.3274   32.4572   19.2748 C.ar    1  UNL1        0.0000
   6482 C          18.3959   38.7230   18.3688 C.ar    1  UNL1        0.0000
   6483 C           1.9651   39.4651   21.0252 C.ar    1  UNL1        0.0000
   6484 C          16.5780   36.9406   13.1624 C.ar    1  UNL1        0.0000
   6485 C          10.1083   48.7321   13.1874 C.2     1  UNL1        0.0000
   6486 C          19.0624   42.7037   13.0364 C.ar    1  UNL1        0.0000
   6487 C           5.7041   44.2461   13.0170 C.ar    1  UNL1        0.0000
   6488 C          11.3123   40.7691   18.7222 C.3     1  UNL1        0.0000
   6489 C           6.5562   33.6747   20.6403 C.3     1  UNL1        0.0000
   6490 C          16.4421   38.3954   13.1392 C.3     1  UNL1        0.0000
   6491 C          10.0155   47.2986   13.1499 C.2     1  UNL1        0.0000
   6492 C          17.7646   42.0868   13.0832 C.3     1  UNL1        0.0000
   6493 C           7.1064   44.6604   13.0414 C.3     1  UNL1        0.0000
   6494 C          16.6173   36.2714   14.3920 C.ar    1  UNL1        0.0000
   6495 C           5.4705   42.3718   25.0450 C.3     1  UNL1        0.0000
   6496 C          19.7177   42.9785   14.2703 C.ar    1  UNL1        0.0000
   6497 C           0.4363   36.9503   24.8835 C.ar    1  UNL1        0.0000
   6498 C          15.1221   35.9060   24.8980 C.ar    1  UNL1        0.0000
   6499 C           5.0069   44.0157   14.2294 C.ar    1  UNL1        0.0000
   6500 C          11.9598   29.1341   25.0471 C.ar    1  UNL1        0.0000
   6501 C          10.1220   49.4833   14.4167 C.3     1  UNL1        0.0000
   6502 N          10.1771   48.8845   15.6548 N.3     1  UNL1        0.0000
   6503 N          14.5430   35.7231   23.6590 N.pl3   1  UNL1        0.0000
   6504 N          15.9326   40.1431   20.7822 N.pl3   1  UNL1        0.0000
   6505 N          14.0356   31.4065   22.4292 N.pl3   1  UNL1        0.0000
   6506 O          15.1899   40.4314   18.2151 O.3     1  UNL1        0.0000
   6507 O           4.7661   37.1968   21.1053 O.3     1  UNL1        0.0000
   6508 O          12.0163   33.0639   22.8270 O.3     1  UNL1        0.0000
   6509 O           8.5636   45.5124   16.5173 O.3     1  UNL1        0.0000
   6510 O           9.3999   44.1256   18.1034 O.3     1  UNL1        0.0000
   6511 O          10.4645   33.3079   21.2004 O.3     1  UNL1        0.0000
   6512 O          16.7781   40.1071   16.6376 O.3     1  UNL1        0.0000
   6513 O           3.9551   38.5840   22.7033 O.3     1  UNL1        0.0000
   6514 O          14.1056   39.8522   15.6385 O.3     1  UNL1        0.0000
   6515 O           6.4594   37.7108   23.2036 O.3     1  UNL1        0.0000
   6516 O          15.0444   42.1395   16.0885 O.3     1  UNL1        0.0000
   6517 O           4.7072   35.9861   23.6963 O.3     1  UNL1        0.0000
   6518 O           9.3137   32.7782   23.7910 O.3     1  UNL1        0.0000
   6519 O          11.0821   44.6736   16.0191 O.3     1  UNL1        0.0000
   6520 O          10.2676   35.0397   23.3268 O.3     1  UNL1        0.0000
   6521 O           9.3759   42.9165   15.5017 O.3     1  UNL1        0.0000
   6522 O          11.6849   31.9239   25.0931 O.3     1  UNL1        0.0000
   6523 O           9.9324   46.5972   14.2451 O.2     1  UNL1        0.0000
   6524 O          12.4871   34.7121   25.0880 O.3     1  UNL1        0.0000
   6525 O           7.6965   44.7615   14.1850 O.3     1  UNL1        0.0000
   6526 O          17.2253   41.7867   14.2312 O.3     1  UNL1        0.0000
   6527 O           3.0709   37.8263   25.0190 O.3     1  UNL1        0.0000
   6528 O          16.4297   39.0323   14.2606 O.3     1  UNL1        0.0000
   6529 O           5.3391   39.6086   25.1003 O.2     1  UNL1        0.0000
   6530 O          12.2974   42.2436   16.1396 O.3     1  UNL1        0.0000
   6531 O           7.5954   35.2398   23.1206 O.3     1  UNL1        0.0000
   6532 O          14.7515   41.0185   13.2068 O.3     1  UNL1        0.0000
   6533 O          10.1838   44.1206   13.0401 O.3     1  UNL1        0.0000
   6534 H          11.3825   36.9318   21.3810 H       1  UNL1        0.0000
   6535 H           7.4833   31.2440   19.9284 H       1  UNL1        0.0000
   6536 H          12.2180   46.0137   18.6250 H      59  UNL59       0.0000
   6537 H          12.5026   38.6893   19.9754 H       1  UNL1        0.0000
   6538 H           7.5867   38.8797   20.7776 H       1  UNL1        0.0000
   6539 H           4.0322   33.8037   19.6941 H       1  UNL1        0.0000
   6540 H           8.9331   37.0336   21.7435 H       1  UNL1        0.0000
   6541 H           8.7134   40.6467   19.3989 H       1  UNL1        0.0000
   6542 H          13.3003   43.8177   18.2334 H      59  UNL59       0.0000
   6543 H          -0.3201   44.0103   18.7698 H      59  UNL59       0.0000
   6544 C          10.6718   39.7692   19.6121 C.ar    1  UNL1        0.0000
   6545 C           9.4228   37.8049   21.1503 C.ar    1  UNL1        0.0000
   6546 C          13.8682   44.6225   18.7008 C.2    59  UNL59       0.0000
   6547 C           5.8294   32.6272   19.8778 C.ar    1  UNL1        0.0000
   6548 C           9.2841   39.8326   19.8407 C.ar    1  UNL1        0.0000
   6549 C          10.8065   37.7462   20.9437 C.ar    1  UNL1        0.0000
   6550 C          13.2543   45.8613   18.9230 C.3    59  UNL59       0.0000
   6551 C           6.4471   31.3876   19.6288 C.ar    1  UNL1        0.0000
   6552 C          15.2060   44.4138   19.0561 C.2    59  UNL59       0.0000
   6553 C           4.4916   32.8376   19.4952 C.ar    1  UNL1        0.0000
   6554 C          11.4324   38.7253   20.1692 C.ar    1  UNL1        0.0000
   6555 C           8.6615   38.8462   20.6051 C.ar    1  UNL1        0.0000
   6556 O          12.5527   40.6265   18.4208 O.3     1  UNL1        0.0000
   6557 O           5.9323   34.7526   20.9536 O.3     1  UNL1        0.0000
   6558 O           7.7536   33.4292   21.0294 O.3     1  UNL1        0.0000
   6559 O          10.5896   41.7181   18.2544 O.3     1  UNL1        0.0000
   6560 N          13.7900   46.1346   38.2073 N.pl3  59  UNL59       0.0000
   6561 N          14.2647   45.3552   40.1924 N.pl3  59  UNL59       0.0000
   6562 C          14.4687   44.9395   38.0233 C.2    59  UNL59       0.0000
   6563 C          14.7694   44.4544   39.2700 C.2    59  UNL59       0.0000
   6564 C          15.5658   46.3047   42.0812 C.3    59  UNL59       0.0000
   6565 C          13.2973   47.0192   37.1438 C.3    59  UNL59       0.0000
   6566 C          13.6703   46.3636   39.5272 C.3    59  UNL59       0.0000
   6567 C          14.4794   45.3188   41.6574 C.3    59  UNL59       0.0000
   6568 H          14.7008   44.5435   37.0425 H      59  UNL59       0.0000
   6569 H          15.2875   43.5531   39.5742 H      59  UNL59       0.0000
   6570 H          16.5206   46.0754   41.5910 H      59  UNL59       0.0000
   6571 H          14.1361   47.3032   36.4994 H      59  UNL59       0.0000
   6572 H          15.2880   47.3387   41.8407 H      59  UNL59       0.0000
   6573 H          12.5379   46.4804   36.5654 H      59  UNL59       0.0000
   6574 H          15.7107   46.2364   43.1677 H      59  UNL59       0.0000
   6575 H          14.7656   44.2878   41.9049 H      59  UNL59       0.0000
   6576 H          12.8550   47.9082   37.6041 H      59  UNL59       0.0000
   6577 H          13.1705   47.2126   39.9768 H      59  UNL59       0.0000
   6578 H          13.5115   45.5242   42.1309 H      59  UNL59       0.0000
   6579 TI          0.3231   30.8199   37.4452 Ti      1  UNL1        0.0000
   6580 TI         11.1535   33.7011   28.0804 Ti      1  UNL1        0.0000
   6581 TI          4.4197   26.8837   35.6252 Ti      1  UNL1        0.0000
   6582 TI          5.9309   36.0458   29.8522 Ti      1  UNL1        0.0000
   6583 TI          4.9324   37.7241   27.9478 Ti      1  UNL1        0.0000
   6584 TI          6.3079   26.6293   37.5786 Ti      1  UNL1        0.0000
   6585 TI          1.2723   29.0840   35.5537 Ti      1  UNL1        0.0000
   6586 TI          9.1657   34.0037   29.9279 Ti      1  UNL1        0.0000
   6587 H           0.8249   34.7170   37.2257 H       1  UNL1        0.0000
   6588 H          11.9623   29.7950   28.4011 H       1  UNL1        0.0000
   6589 H          -3.6368   30.0633   37.0627 H       1  UNL1        0.0000
   6590 H          14.5357   35.7054   28.2810 H       1  UNL1        0.0000
   6591 H           7.2836   22.5948   37.1927 H       1  UNL1        0.0000
   6592 H           0.8738   37.1342   28.2699 H       1  UNL1        0.0000
   6593 H           5.4268   36.0873   26.0747 H       1  UNL1        0.0000
   6594 H           9.2780   33.4584   26.3805 H       1  UNL1        0.0000
   6595 H           6.8179   25.9622   32.0675 H       1  UNL1        0.0000
   6596 H           4.2075   37.8828   33.4711 H       1  UNL1        0.0000
   6597 H          -2.8004   32.4726   35.1978 H       1  UNL1        0.0000
   6598 H          13.9083   31.6168   30.3864 H       1  UNL1        0.0000
   6599 H          -0.4993   31.0252   31.8640 H       1  UNL1        0.0000
   6600 H           1.8323   39.5520   30.3010 H       1  UNL1        0.0000
   6601 H           5.3246   40.8270   28.8033 H       1  UNL1        0.0000
   6602 H          11.8045   27.7762   29.6036 H       1  UNL1        0.0000
   6603 H           8.0236   35.7260   28.5136 H       1  UNL1        0.0000
   6604 H           3.3390   28.7321   36.9188 H       1  UNL1        0.0000
   6605 H          10.5427   28.5642   35.9682 H       1  UNL1        0.0000
   6606 H           9.0616   28.0951   36.7156 H       1  UNL1        0.0000
   6607 H          11.1168   32.9978   34.8693 H       1  UNL1        0.0000
   6608 H          10.5471   33.3564   33.2508 H       1  UNL1        0.0000
   6609 H          10.0539   23.6094   35.7782 H       1  UNL1        0.0000
   6610 H           8.7747   24.7100   36.2356 H       1  UNL1        0.0000
   6611 C          11.7316   32.9599   30.9439 C.3     1  UNL1        0.0000
   6612 C          -0.6375   31.0813   34.5982 C.3     1  UNL1        0.0000
   6613 C           7.0002   25.8730   34.7005 C.3     1  UNL1        0.0000
   6614 C           3.9948   38.0163   30.8115 C.3     1  UNL1        0.0000
   6615 C          12.6276   32.3556   31.9391 C.ar    1  UNL1        0.0000
   6616 C          -1.5694   31.7063   33.6211 C.ar    1  UNL1        0.0000
   6617 C           7.9404   25.2586   33.7533 C.ar    1  UNL1        0.0000
   6618 C           3.1050   38.6631   31.8113 C.2     1  UNL1        0.0000
   6619 C          12.3788   32.4305   33.3455 C.ar    1  UNL1        0.0000
   6620 C          -1.3530   31.5863   32.2331 C.ar    1  UNL1        0.0000
   6621 C           9.0699   24.4983   34.2064 C.ar    1  UNL1        0.0000
   6622 C           2.0103   39.4361   31.3664 C.3     1  UNL1        0.0000
   6623 C           3.3595   38.4924   33.1662 C.2     1  UNL1        0.0000
   6624 C           7.6927   25.3908   32.3694 C.ar    1  UNL1        0.0000
   6625 C          13.7613   31.6566   31.4634 C.ar    1  UNL1        0.0000
   6626 C          -2.6696   32.3987   34.1198 C.ar    1  UNL1        0.0000
   6627 C          11.9433   29.8741   26.2570 C.ar    1  UNL1        0.0000
   6628 C           5.4736   41.6657   26.2820 C.2     1  UNL1        0.0000
   6629 C          14.4278   35.6372   26.1310 C.ar    1  UNL1        0.0000
   6630 C           1.0694   37.1797   26.1116 C.ar    1  UNL1        0.0000
   6631 C           6.6777   33.7026   31.8168 C.3     1  UNL1        0.0000
   6632 C           1.9216   26.6083   33.7349 C.3     1  UNL1        0.0000
   6633 C          11.8075   31.3290   26.2338 C.3     1  UNL1        0.0000
   6634 C           5.3809   40.2322   26.2445 C.2     1  UNL1        0.0000
   6635 C          13.1299   35.0204   26.1778 C.3     1  UNL1        0.0000
   6636 C           2.4718   37.5940   26.1360 C.3     1  UNL1        0.0000
   6637 C          11.9827   29.2050   27.4867 C.ar    1  UNL1        0.0000
   6638 C           0.8359   35.3054   38.1396 C.3     1  UNL1        0.0000
   6639 C          15.0831   35.9120   27.3649 C.ar    1  UNL1        0.0000
   6640 C          -4.1983   29.8839   37.9781 C.ar    1  UNL1        0.0000
   6641 C          10.4874   28.8395   37.9926 C.ar    1  UNL1        0.0000
   6642 C           0.3723   36.9493   27.3241 C.ar    1  UNL1        0.0000
   6643 C           7.3252   22.0676   38.1417 C.ar    1  UNL1        0.0000
   6644 C           5.4874   42.4169   27.5113 C.3     1  UNL1        0.0000
   6645 N           5.5424   41.8181   28.7494 N.3     1  UNL1        0.0000
   6646 N           9.9084   28.6567   36.7536 N.pl3   1  UNL1        0.0000
   6647 N          11.2979   33.0767   33.8768 N.pl3   1  UNL1        0.0000
   6648 N           9.4009   24.3401   35.5238 N.pl3   1  UNL1        0.0000
   6649 O          10.5552   33.3650   31.3097 O.3     1  UNL1        0.0000
   6650 O           0.1315   30.1304   34.1999 O.3     1  UNL1        0.0000
   6651 O           7.3817   25.9975   35.9216 O.3     1  UNL1        0.0000
   6652 O           3.9289   38.4460   29.6119 O.3     1  UNL1        0.0000
   6653 O           4.7653   37.0591   31.1980 O.3     1  UNL1        0.0000
   6654 O           5.8298   26.2414   34.2950 O.3     1  UNL1        0.0000
   6655 O          12.1434   33.0406   29.7322 O.3     1  UNL1        0.0000
   6656 O          -0.6795   31.5175   35.7979 O.3     1  UNL1        0.0000
   6657 O           9.4709   32.7857   28.7332 O.3     1  UNL1        0.0000
   6658 O           1.8247   30.6444   36.2982 O.3     1  UNL1        0.0000
   6659 O          10.4097   35.0730   29.1831 O.3     1  UNL1        0.0000
   6660 O           0.0725   28.9197   36.7909 O.3     1  UNL1        0.0000
   6661 O           4.6790   25.7117   36.8856 O.3     1  UNL1        0.0000
   6662 O           6.4475   37.6071   29.1137 O.3     1  UNL1        0.0000
   6663 O           5.6330   27.9732   36.4215 O.3     1  UNL1        0.0000
   6664 O           4.7413   35.8500   28.5963 O.3     1  UNL1        0.0000
   6665 O           7.0503   24.8575   38.1877 O.3     1  UNL1        0.0000
   6666 O           5.2977   39.5308   27.3397 O.2     1  UNL1        0.0000
   6667 O           7.8524   27.6457   38.1826 O.3     1  UNL1        0.0000
   6668 O           3.0618   37.6950   27.2796 O.3     1  UNL1        0.0000
   6669 O          12.5906   34.7202   27.3258 O.3     1  UNL1        0.0000
   6670 O          -1.5637   30.7598   38.1136 O.3     1  UNL1        0.0000
   6671 O          11.7950   31.9659   27.3552 O.3     1  UNL1        0.0000
   6672 O           0.7045   32.5422   38.1949 O.2     1  UNL1        0.0000
   6673 O           7.6627   35.1772   29.2342 O.3     1  UNL1        0.0000
   6674 O           2.9608   28.1734   36.2152 O.3     1  UNL1        0.0000
   6675 O          10.1168   33.9521   26.3014 O.3     1  UNL1        0.0000
   6676 O           5.5492   37.0541   26.1347 O.3     1  UNL1        0.0000
   6677 H           6.7478   29.8653   34.4756 H       1  UNL1        0.0000
   6678 H           2.8486   24.1775   33.0230 H       1  UNL1        0.0000
   6679 H           7.5834   38.9472   31.7196 H      59  UNL59       0.0000
   6680 H           7.8679   31.6229   33.0700 H       1  UNL1        0.0000
   6681 H           2.9520   31.8133   33.8722 H       1  UNL1        0.0000
   6682 H          -0.6024   26.7372   32.7887 H       1  UNL1        0.0000
   6683 H           4.2984   29.9671   34.8381 H       1  UNL1        0.0000
   6684 H           4.0788   33.5803   32.4935 H       1  UNL1        0.0000
   6685 H           8.6656   36.7512   31.3280 H      59  UNL59       0.0000
   6686 H          -4.9547   36.9439   31.8644 H      59  UNL59       0.0000
   6687 C           6.0371   32.7028   32.7067 C.ar    1  UNL1        0.0000
   6688 C           4.7881   30.7384   34.2449 C.ar    1  UNL1        0.0000
   6689 C           9.2336   37.5561   31.7954 C.2    59  UNL59       0.0000
   6690 C           1.1947   25.5608   32.9725 C.ar    1  UNL1        0.0000
   6691 C           4.6495   32.7662   32.9353 C.ar    1  UNL1        0.0000
   6692 C           6.1718   30.6797   34.0383 C.ar    1  UNL1        0.0000
   6693 C           8.6196   38.7948   32.0176 C.3    59  UNL59       0.0000
   6694 C           1.8125   24.3211   32.7234 C.ar    1  UNL1        0.0000
   6695 C          10.5714   37.3473   32.1507 C.2    59  UNL59       0.0000
   6696 C          -0.1430   25.7711   32.5898 C.ar    1  UNL1        0.0000
   6697 C           6.7978   31.6588   33.2638 C.ar    1  UNL1        0.0000
   6698 C           4.0268   31.7797   33.6997 C.ar    1  UNL1        0.0000
   6699 O           7.9180   33.5601   31.5154 O.3     1  UNL1        0.0000
   6700 O           1.2977   27.6862   34.0482 O.3     1  UNL1        0.0000
   6701 O           3.1190   26.3628   34.1240 O.3     1  UNL1        0.0000
   6702 O           5.9549   34.6517   31.3490 O.3     1  UNL1        0.0000
   6703 N           9.1553   39.0682   51.3020 N.pl3  59  UNL59       0.0000
   6704 N           9.6300   38.2887   53.2870 N.pl3  59  UNL59       0.0000
   6705 C           9.8341   37.8731   51.1179 C.2    59  UNL59       0.0000
   6706 C          10.1347   37.3880   52.3646 C.2    59  UNL59       0.0000
   6707 C          10.9312   39.2382   55.1758 C.3    59  UNL59       0.0000
   6708 C           8.6627   39.9528   50.2384 C.3    59  UNL59       0.0000
   6709 C           9.0356   39.2971   52.6218 C.3    59  UNL59       0.0000
   6710 C           9.8447   38.2524   54.7521 C.3    59  UNL59       0.0000
   6711 H          10.0662   37.4770   50.1371 H      59  UNL59       0.0000
   6712 H          10.6529   36.4867   52.6688 H      59  UNL59       0.0000
   6713 H          11.8859   39.0089   54.6856 H      59  UNL59       0.0000
   6714 H           9.5015   40.2368   49.5940 H      59  UNL59       0.0000
   6715 H          10.6533   40.2722   54.9353 H      59  UNL59       0.0000
   6716 H           7.9032   39.4140   49.6600 H      59  UNL59       0.0000
   6717 H          11.0761   39.1699   56.2624 H      59  UNL59       0.0000
   6718 H          10.1310   37.2213   54.9995 H      59  UNL59       0.0000
   6719 H           8.2204   40.8418   50.6987 H      59  UNL59       0.0000
   6720 H           8.5359   40.1461   53.0714 H      59  UNL59       0.0000
   6721 H           8.8769   38.4577   55.2255 H      59  UNL59       0.0000
   6722 TI         -4.3116   23.7534   50.5398 Ti      1  UNL1        0.0000
   6723 TI          6.5189   26.6347   41.1750 Ti      1  UNL1        0.0000
   6724 TI         -0.2149   19.8173   48.7198 Ti      1  UNL1        0.0000
   6725 TI          1.2963   28.9794   42.9468 Ti      1  UNL1        0.0000
   6726 TI          0.2977   30.6577   41.0424 Ti      1  UNL1        0.0000
   6727 TI          1.6733   19.5629   50.6732 Ti      1  UNL1        0.0000
   6728 TI         -3.3624   22.0176   48.6483 Ti      1  UNL1        0.0000
   6729 TI          4.5311   26.9372   43.0225 Ti      1  UNL1        0.0000
   6730 H          -3.8097   27.6505   50.3204 H      59  UNL59       0.0000
   6731 H           7.3277   22.7286   41.4957 H       1  UNL1        0.0000
   6732 H          -8.2715   22.9968   50.1574 H      59  UNL59       0.0000
   6733 H           9.9010   28.6390   41.3757 H       1  UNL1        0.0000
   6734 H           2.6489   15.5284   50.2873 H      59  UNL59       0.0000
   6735 H          -3.7608   30.0678   41.3645 H       1  UNL1        0.0000
   6736 H           0.7922   29.0209   39.1693 H       1  UNL1        0.0000
   6737 H           4.6434   26.3920   39.4751 H       1  UNL1        0.0000
   6738 H           2.1832   18.8958   45.1621 H       1  UNL1        0.0000
   6739 H          -0.4272   30.8164   46.5658 H       1  UNL1        0.0000
   6740 H          -7.4350   25.4062   48.2924 H       1  UNL1        0.0000
   6741 H           9.2736   24.5503   43.4810 H       1  UNL1        0.0000
   6742 H          -5.1339   23.9587   44.9586 H       1  UNL1        0.0000
   6743 H          -2.8024   32.4856   43.3956 H       1  UNL1        0.0000
   6744 H           0.6900   33.7605   41.8979 H       1  UNL1        0.0000
   6745 H           7.1698   20.7098   42.6982 H       1  UNL1        0.0000
   6746 H           3.3889   28.6595   41.6082 H       1  UNL1        0.0000
   6747 H          -1.2956   21.6656   50.0135 H       1  UNL1        0.0000
   6748 H           5.9080   21.4978   49.0629 H      59  UNL59       0.0000
   6749 H           4.4269   21.0287   49.8102 H      59  UNL59       0.0000
   6750 H           6.4822   25.9314   47.9640 H       1  UNL1        0.0000
   6751 H           5.9124   26.2900   46.3454 H       1  UNL1        0.0000
   6752 H           5.4192   16.5429   48.8728 H       1  UNL1        0.0000
   6753 H           4.1401   17.6435   49.3302 H       1  UNL1        0.0000
   6754 C           7.0969   25.8934   44.0385 C.3     1  UNL1        0.0000
   6755 C          -5.2721   24.0148   47.6928 C.3     1  UNL1        0.0000
   6756 C           2.3656   18.8065   47.7951 C.3     1  UNL1        0.0000
   6757 C          -0.6398   30.9499   43.9062 C.3     1  UNL1        0.0000
   6758 C           7.9929   25.2891   45.0337 C.ar    1  UNL1        0.0000
   6759 C          -6.2040   24.6399   46.7157 C.ar    1  UNL1        0.0000
   6760 C           3.3058   18.1922   46.8479 C.ar    1  UNL1        0.0000
   6761 C          -1.5296   31.5967   44.9059 C.2     1  UNL1        0.0000
   6762 C           7.7442   25.3640   46.4401 C.ar    1  UNL1        0.0000
   6763 C          -5.9876   24.5199   45.3277 C.ar    1  UNL1        0.0000
   6764 C           4.4353   17.4319   47.3010 C.ar    1  UNL1        0.0000
   6765 C          -2.6244   32.3697   44.4610 C.3     1  UNL1        0.0000
   6766 C          -1.2752   31.4259   46.2608 C.2     1  UNL1        0.0000
   6767 C           3.0581   18.3243   45.4640 C.ar    1  UNL1        0.0000
   6768 C           9.1266   24.5901   44.5580 C.ar    1  UNL1        0.0000
   6769 C          -7.3042   25.3323   47.2144 C.ar    1  UNL1        0.0000
   6770 C           7.3087   22.8077   39.3516 C.ar    1  UNL1        0.0000
   6771 C           0.8390   34.5993   39.3766 C.2     1  UNL1        0.0000
   6772 C           9.7931   28.5708   39.2256 C.ar    1  UNL1        0.0000
   6773 C          -3.5652   30.1132   39.2062 C.ar    1  UNL1        0.0000
   6774 C           2.0430   26.6362   44.9114 C.3     1  UNL1        0.0000
   6775 C          -2.7131   19.5418   46.8295 C.3     1  UNL1        0.0000
   6776 C           7.1728   24.2625   39.3284 C.3     1  UNL1        0.0000
   6777 C           0.7462   33.1658   39.3391 C.2     1  UNL1        0.0000
   6778 C           8.4953   27.9540   39.2724 C.3     1  UNL1        0.0000
   6779 C          -2.1629   30.5276   39.2307 C.3     1  UNL1        0.0000
   6780 C           7.3480   22.1386   40.5813 C.ar    1  UNL1        0.0000
   6781 C          -3.7988   28.2389   51.2342 C.3    66  UNL66       0.0000
   6782 C          10.4484   28.8456   40.4595 C.ar    1  UNL1        0.0000
   6783 C          -8.8330   22.8174   51.0727 C.2    59  UNL59       0.0000
   6784 C           5.8528   21.7731   51.0872 C.2    59  UNL59       0.0000
   6785 C          -4.2624   29.8828   40.4187 C.ar    1  UNL1        0.0000
   6786 C           2.6905   15.0012   51.2363 C.2    59  UNL59       0.0000
   6787 C           0.8527   35.3505   40.6059 C.3     1  UNL1        0.0000
   6788 N           0.9078   34.7516   41.8440 N.3     1  UNL1        0.0000
   6789 N           5.2738   21.5902   49.8482 N.pl3  59  UNL59       0.0000
   6790 N           6.6633   26.0103   46.9714 N.pl3   1  UNL1        0.0000
   6791 N           4.7663   17.2737   48.6184 N.pl3   1  UNL1        0.0000
   6792 O           5.9206   26.2985   44.4043 O.3     1  UNL1        0.0000
   6793 O          -4.5031   23.0640   47.2945 O.3     1  UNL1        0.0000
   6794 O           2.7471   18.9310   49.0162 O.3     1  UNL1        0.0000
   6795 O          -0.7057   31.3796   42.7066 O.3     1  UNL1        0.0000
   6796 O           0.1306   29.9927   44.2926 O.3     1  UNL1        0.0000
   6797 O           1.1952   19.1750   47.3896 O.3     1  UNL1        0.0000
   6798 O           7.5088   25.9742   42.8268 O.3     1  UNL1        0.0000
   6799 O          -5.3142   24.4511   48.8925 O.3     1  UNL1        0.0000
   6800 O           4.8363   25.7193   41.8278 O.3     1  UNL1        0.0000
   6801 O          -2.8099   23.5779   49.3928 O.3     1  UNL1        0.0000
   6802 O           5.7751   28.0066   42.2777 O.3     1  UNL1        0.0000
   6803 O          -4.5621   21.8532   49.8855 O.3     1  UNL1        0.0000
   6804 O           0.0444   18.6453   49.9802 O.3     1  UNL1        0.0000
   6805 O           1.8128   30.5407   42.2083 O.3     1  UNL1        0.0000
   6806 O           0.9984   20.9068   49.5161 O.3     1  UNL1        0.0000
   6807 O           0.1066   28.7836   41.6909 O.3     1  UNL1        0.0000
   6808 O           2.4156   17.7911   51.2823 O.3     1  UNL1        0.0000
   6809 O           0.6631   32.4643   40.4343 O.2     1  UNL1        0.0000
   6810 O           3.2178   20.5792   51.2772 O.3     1  UNL1        0.0000
   6811 O          -1.5728   30.6286   40.3742 O.3     1  UNL1        0.0000
   6812 O           7.9560   27.6538   40.4204 O.3     1  UNL1        0.0000
   6813 O          -6.1984   23.6934   51.2082 O.3     1  UNL1        0.0000
   6814 O           7.1604   24.8995   40.4498 O.3     1  UNL1        0.0000
   6815 O          -3.9302   25.4757   51.2895 O.3     1  UNL1        0.0000
   6816 O           3.0281   28.1108   42.3288 O.3     1  UNL1        0.0000
   6817 O          -1.6739   21.1070   49.3099 O.3     1  UNL1        0.0000
   6818 O           5.4822   26.8856   39.3960 O.3     1  UNL1        0.0000
   6819 O           0.9145   29.9877   39.2293 O.3     1  UNL1        0.0000
   6820 H           2.1132   22.7989   47.5702 H       1  UNL1        0.0000
   6821 H          -1.7860   17.1111   46.1176 H       1  UNL1        0.0000
   6822 H           2.9487   31.8808   44.8142 H      59  UNL59       0.0000
   6823 H           3.2333   24.5565   46.1646 H       1  UNL1        0.0000
   6824 H          -1.6826   24.7469   46.9668 H       1  UNL1        0.0000
   6825 H          -5.2371   19.6708   45.8833 H       1  UNL1        0.0000
   6826 H          -0.3362   22.9007   47.9327 H       1  UNL1        0.0000
   6827 H          -0.5559   26.5138   45.5881 H       1  UNL1        0.0000
   6828 H           4.0310   29.6848   44.4227 H      59  UNL59       0.0000
   6829 H          -9.5894   29.8775   44.9590 H      59  UNL59       0.0000
   6830 C           1.4025   25.6364   45.8013 C.ar    1  UNL1        0.0000
   6831 C           0.1535   23.6720   47.3395 C.ar    1  UNL1        0.0000
   6832 C           4.5989   30.4896   44.8900 C.2    59  UNL59       0.0000
   6833 C          -3.4399   18.4944   46.0671 C.ar    1  UNL1        0.0000
   6834 C           0.0148   25.6997   46.0299 C.ar    1  UNL1        0.0000
   6835 C           1.5372   23.6133   47.1329 C.ar    1  UNL1        0.0000
   6836 C           3.9850   31.7284   45.1122 C.3    59  UNL59       0.0000
   6837 C          -2.8221   17.2547   45.8181 C.ar    1  UNL1        0.0000
   6838 C           5.9367   30.2809   45.2453 C.2    59  UNL59       0.0000
   6839 C          -4.7777   18.7047   45.6844 C.ar    1  UNL1        0.0000
   6840 C           2.1631   24.5924   46.3584 C.ar    1  UNL1        0.0000
   6841 C          -0.6078   24.7133   46.7943 C.ar    1  UNL1        0.0000
   6842 O           3.2834   26.4936   44.6100 O.3     1  UNL1        0.0000
   6843 O          -3.3370   20.6198   47.1428 O.3     1  UNL1        0.0000
   6844 O          -1.5157   19.2963   47.2186 O.3     1  UNL1        0.0000
   6845 O           1.3203   27.5853   44.4436 O.3     1  UNL1        0.0000
   6846 N           4.5207   32.0017   64.3966 N.pl3  59  UNL59       0.0000
   6847 N           4.9954   31.2223   66.3816 N.pl3  59  UNL59       0.0000
   6848 C           5.1994   30.8066   64.2125 C.2    59  UNL59       0.0000
   6849 C           5.5001   30.3216   65.4592 C.2    59  UNL59       0.0000
   6850 C           6.2965   32.1718   68.2704 C.3    59  UNL59       0.0000
   6851 C           4.0280   32.8863   63.3330 C.3    59  UNL59       0.0000
   6852 C           4.4010   32.2307   65.7164 C.3    59  UNL59       0.0000
   6853 C           5.2101   31.1860   67.8467 C.3    59  UNL59       0.0000
   6854 H           5.4315   30.4106   63.2317 H      59  UNL59       0.0000
   6855 H           6.0182   29.4203   65.7634 H      59  UNL59       0.0000
   6856 H           7.2513   31.9425   67.7802 H      59  UNL59       0.0000
   6857 H           4.8668   33.1703   62.6886 H      59  UNL59       0.0000
   6858 H           6.0187   33.2058   68.0299 H      59  UNL59       0.0000
   6859 H           3.2686   32.3475   62.7546 H      59  UNL59       0.0000
   6860 H           6.4415   32.1035   69.3570 H      59  UNL59       0.0000
   6861 H           5.4964   30.1549   68.0941 H      59  UNL59       0.0000
   6862 H           3.5857   33.7753   63.7933 H      59  UNL59       0.0000
   6863 H           3.9012   33.0797   66.1660 H      59  UNL59       0.0000
   6864 H           4.2422   31.3913   68.3201 H      59  UNL59       0.0000
   6865 TI         45.1429    0.5580   11.5151 Ti      1  UNL1        0.0000
   6866 TI         55.9734    3.4392    2.1503 Ti      1  UNL1        0.0000
   6867 TI         49.2396   -3.3782    9.6951 Ti      1  UNL1        0.0000
   6868 TI         50.7508    5.7839    3.9221 Ti      1  UNL1        0.0000
   6869 TI         49.7522    7.4622    2.0177 Ti      1  UNL1        0.0000
   6870 TI         51.1278   -3.6326   11.6485 Ti      1  UNL1        0.0000
   6871 TI         46.0921   -1.1779    9.6236 Ti      1  UNL1        0.0000
   6872 TI         53.9855    3.7417    3.9978 Ti      1  UNL1        0.0000
   6873 H          45.6448    4.4551   11.2957 H       1  UNL1        0.0000
   6874 H          56.7821   -0.4669    2.4710 H       1  UNL1        0.0000
   6875 H          41.1830   -0.1987   11.1327 H       1  UNL1        0.0000
   6876 H          59.3555    5.4435    2.3509 H       1  UNL1        0.0000
   6877 H          52.1034   -7.6671   11.2626 H       1  UNL1        0.0000
   6878 H          45.6937    6.8723    2.3398 H       1  UNL1        0.0000
   6879 H          50.2466    5.8254    0.1446 H       1  UNL1        0.0000
   6880 H          54.0978    3.1965    0.4504 H       1  UNL1        0.0000
   6881 H          51.6377   -4.2997    6.1374 H       1  UNL1        0.0000
   6882 H          49.0273    7.6209    7.5411 H       1  UNL1        0.0000
   6883 H          42.0195    2.2107    9.2677 H       1  UNL1        0.0000
   6884 H          58.7281    1.3549    4.4563 H       1  UNL1        0.0000
   6885 H          44.3206    0.7633    5.9339 H       1  UNL1        0.0000
   6886 H          46.6521    9.2901    4.3709 H       1  UNL1        0.0000
   6887 H          50.1444   10.5650    2.8732 H       1  UNL1        0.0000
   6888 H          56.6243   -2.4857    3.6735 H      67  UNL67       0.0000
   6889 H          52.8434    5.4640    2.5835 H       1  UNL1        0.0000
   6890 H          48.1589   -1.5298   10.9887 H       1  UNL1        0.0000
   6891 H          55.3625   -1.6977   10.0382 H       1  UNL1        0.0000
   6892 H          53.8814   -2.1668   10.7855 H       1  UNL1        0.0000
   6893 H          55.9366    2.7359    8.9393 H       1  UNL1        0.0000
   6894 H          55.3669    3.0945    7.3207 H       1  UNL1        0.0000
   6895 H          54.8737   -6.6526    9.8481 H       1  UNL1        0.0000
   6896 H          53.5945   -5.5520   10.3055 H       1  UNL1        0.0000
   6897 C          56.5514    2.6979    5.0138 C.2     1  UNL1        0.0000
   6898 C          44.1823    0.8194    8.6681 C.3     1  UNL1        0.0000
   6899 C          51.8201   -4.3889    8.7704 C.3     1  UNL1        0.0000
   6900 C          48.8146    7.7544    4.8815 C.3     1  UNL1        0.0000
   6901 C          57.4474    2.0936    6.0090 C.2     1  UNL1        0.0000
   6902 C          43.2504    1.4444    7.6910 C.ar    1  UNL1        0.0000
   6903 C          52.7603   -5.0033    7.8232 C.2     1  UNL1        0.0000
   6904 C          47.9248    8.4012    5.8812 C.ar    1  UNL1        0.0000
   6905 C          57.1986    2.1685    7.4154 C.3     1  UNL1        0.0000
   6906 C          43.4668    1.3244    6.3030 C.ar    1  UNL1        0.0000
   6907 C          53.8897   -5.7636    8.2763 C.2     1  UNL1        0.0000
   6908 C          46.8301    9.1742    5.4363 C.ar    1  UNL1        0.0000
   6909 C          48.1793    8.2305    7.2361 C.ar    1  UNL1        0.0000
   6910 C          52.5126   -4.8711    6.4393 C.3     1  UNL1        0.0000
   6911 C          58.5811    1.3946    5.5333 C.3     1  UNL1        0.0000
   6912 C          42.1503    2.1368    8.1897 C.ar    1  UNL1        0.0000
   6913 C          56.7632   -0.3878    0.3269 C.2     1  UNL1        0.0000
   6914 C          50.2934   11.4038    0.3519 C.2     1  UNL1        0.0000
   6915 C          59.2476    5.3753    0.2009 C.2     1  UNL1        0.0000
   6916 C          45.8893    6.9177    0.1815 C.2     1  UNL1        0.0000
   6917 C          51.4975    3.4407    5.8867 C.3     1  UNL1        0.0000
   6918 C          46.7414   -3.6536    7.8048 C.2     1  UNL1        0.0000
   6919 C          56.6273    1.0671    0.3037 C.2     1  UNL1        0.0000
   6920 C          50.2007    9.9703    0.3144 C.2     1  UNL1        0.0000
   6921 C          57.9498    4.7585    0.2477 C.2     1  UNL1        0.0000
   6922 C          47.2916    7.3321    0.2060 C.2     1  UNL1        0.0000
   6923 C          56.8025   -1.0569    1.5566 C.3     1  UNL1        0.0000
   6924 C          45.6557    5.0435   12.2095 C.ar    1  UNL1        0.0000
   6925 C          59.9029    5.6501    1.4348 C.3     1  UNL1        0.0000
   6926 C          40.6215   -0.3780   12.0480 C.ar    1  UNL1        0.0000
   6927 C          55.3072   -1.4224   12.0625 C.3     1  UNL1        0.0000
   6928 C          45.1921    6.6873    1.3940 C.2     1  UNL1        0.0000
   6929 C          52.1450   -8.1943   12.2116 C.3     1  UNL1        0.0000
   6930 C          50.3072   12.1550    1.5812 C.2     1  UNL1        0.0000
   6931 N          50.3623   11.5561    2.8193 N.pl3   1  UNL1        0.0000
   6932 N          54.7282   -1.6052   10.8235 N.3     1  UNL1        0.0000
   6933 N          56.1178    2.8148    7.9467 N.3     1  UNL1        0.0000
   6934 N          54.2207   -5.9218    9.5937 N.pl3   1  UNL1        0.0000
   6935 O          55.3751    3.1030    5.3796 O.2     1  UNL1        0.0000
   6936 O          44.9513   -0.1315    8.2698 O.3     1  UNL1        0.0000
   6937 O          52.2015   -4.2645    9.9915 O.3     1  UNL1        0.0000
   6938 O          48.7488    8.1841    3.6819 O.3     1  UNL1        0.0000
   6939 O          49.5851    6.7972    5.2679 O.3     1  UNL1        0.0000
   6940 O          50.6496   -4.0205    8.3649 O.3     1  UNL1        0.0000
   6941 O          56.9633    2.7787    3.8021 O.2     1  UNL1        0.0000
   6942 O          44.1403    1.2556    9.8678 O.3     1  UNL1        0.0000
   6943 O          54.2908    2.5238    2.8031 O.3     1  UNL1        0.0000
   6944 O          46.6445    0.3824   10.3681 O.3     1  UNL1        0.0000
   6945 O          55.2295    4.8111    3.2530 O.3     1  UNL1        0.0000
   6946 O          44.8924   -1.3422   10.8608 O.3     1  UNL1        0.0000
   6947 O          49.4989   -4.5502   10.9555 O.3     1  UNL1        0.0000
   6948 O          51.2673    7.3452    3.1836 O.3     1  UNL1        0.0000
   6949 O          50.4528   -2.2887   10.4914 O.3     1  UNL1        0.0000
   6950 O          49.5611    5.5881    2.6662 O.3     1  UNL1        0.0000
   6951 O          51.8701   -5.4044   12.2576 O.2     1  UNL1        0.0000
   6952 O          50.1176    9.2688    1.4096 O.2     1  UNL1        0.0000
   6953 O          52.6722   -2.6163   12.2525 O.2     1  UNL1        0.0000
   6954 O          47.8816    7.4331    1.3495 O.2     1  UNL1        0.0000
   6955 O          57.4104    4.4583    1.3957 O.2     1  UNL1        0.0000
   6956 O          43.2561    0.4979   12.1835 O.3     1  UNL1        0.0000
   6957 O          56.6149    1.7040    1.4251 O.2     1  UNL1        0.0000
   6958 O          45.5243    2.2803   12.2648 O.3     1  UNL1        0.0000
   6959 O          52.4825    4.9153    3.3041 O.3     1  UNL1        0.0000
   6960 O          47.7806   -2.0885   10.2852 O.3     1  UNL1        0.0000
   6961 O          54.9367    3.6902    0.3713 O.3     1  UNL1        0.0000
   6962 O          50.3690    6.7922    0.2046 O.3     1  UNL1        0.0000
   6963 H          51.5676   -0.3966    8.5455 H       1  UNL1        0.0000
   6964 H          47.6684   -6.0844    7.0929 H       1  UNL1        0.0000
   6965 H          52.4032    8.6853    5.7895 H      59  UNL59       0.0000
   6966 H          52.6877    1.3610    7.1399 H       1  UNL1        0.0000
   6967 H          47.7719    1.5514    7.9421 H       1  UNL1        0.0000
   6968 H          44.2174   -3.5247    6.8586 H       1  UNL1        0.0000
   6969 H          49.1182   -0.2948    8.9080 H       1  UNL1        0.0000
   6970 H          48.8986    3.3183    6.5634 H       1  UNL1        0.0000
   6971 H          53.4854    6.4893    5.3979 H      59  UNL59       0.0000
   6972 H          39.8651    6.6820    5.9343 H       1  UNL1        0.0000
   6973 C          50.8569    2.4409    6.7766 C.ar    1  UNL1        0.0000
   6974 C          49.6079    0.4765    8.3148 C.ar    1  UNL1        0.0000
   6975 C          54.0534    7.2942    5.8653 C.2    59  UNL59       0.0000
   6976 C          46.0146   -4.7011    7.0424 C.2     1  UNL1        0.0000
   6977 C          49.4693    2.5042    7.0052 C.ar    1  UNL1        0.0000
   6978 C          50.9916    0.4178    8.1082 C.ar    1  UNL1        0.0000
   6979 C          53.4395    8.5329    6.0875 C.2    59  UNL59       0.0000
   6980 C          46.6323   -5.9408    6.7934 C.3     1  UNL1        0.0000
   6981 C          55.3912    7.0854    6.2206 C.3    59  UNL59       0.0000
   6982 C          44.6768   -4.4908    6.6597 C.3     1  UNL1        0.0000
   6983 C          51.6176    1.3969    7.3337 C.ar    1  UNL1        0.0000
   6984 C          48.8466    1.5178    7.7696 C.ar    1  UNL1        0.0000
   6985 O          52.7379    3.2982    5.5853 O.3     1  UNL1        0.0000
   6986 O          46.1175   -2.5757    8.1181 O.2     1  UNL1        0.0000
   6987 O          47.9388   -3.8991    8.1939 O.2     1  UNL1        0.0000
   6988 O          50.7748    4.3898    5.4189 O.3     1  UNL1        0.0000
   6989 N          53.9751    8.8062   25.3719 N.pl3  59  UNL59       0.0000
   6990 N          54.4498    8.0268   27.3569 N.pl3  59  UNL59       0.0000
   6991 C          54.6539    7.6111   25.1878 C.2    59  UNL59       0.0000
   6992 C          54.9545    7.1261   26.4345 C.2    59  UNL59       0.0000
   6993 C          55.7510    8.9763   29.2457 C.3    59  UNL59       0.0000
   6994 C          53.4825    9.6909   24.3083 C.3    59  UNL59       0.0000
   6995 C          53.8554    9.0352   26.6917 C.3    59  UNL59       0.0000
   6996 C          54.6645    7.9905   28.8220 C.3    59  UNL59       0.0000
   6997 H          54.8860    7.2151   24.2070 H      59  UNL59       0.0000
   6998 H          55.4727    6.2248   26.7387 H      59  UNL59       0.0000
   6999 H          56.7057    8.7470   28.7555 H      59  UNL59       0.0000
   7000 H          54.3213    9.9748   23.6639 H      59  UNL59       0.0000
   7001 H          55.4731   10.0103   29.0052 H      59  UNL59       0.0000
   7002 H          52.7231    9.1521   23.7299 H      59  UNL59       0.0000
   7003 H          55.8959    8.9080   30.3323 H      59  UNL59       0.0000
   7004 H          54.9508    6.9594   29.0694 H      59  UNL59       0.0000
   7005 H          53.0402   10.5798   24.7686 H      59  UNL59       0.0000
   7006 H          53.3557    9.8842   27.1413 H      59  UNL59       0.0000
   7007 H          53.6967    8.1958   29.2954 H      59  UNL59       0.0000
   7008 TI         40.5082   -6.5085   24.6097 Ti      1  UNL1        0.0000
   7009 TI         51.3387   -3.6273   15.2449 Ti      1  UNL1        0.0000
   7010 TI         44.6049  -10.4447   22.7897 Ti      1  UNL1        0.0000
   7011 TI         46.1161   -1.2825   17.0167 Ti      1  UNL1        0.0000
   7012 TI         45.1175    0.3958   15.1123 Ti      1  UNL1        0.0000
   7013 TI         46.4931  -10.6990   24.7431 Ti      1  UNL1        0.0000
   7014 TI         41.4574   -8.2444   22.7182 Ti      1  UNL1        0.0000
   7015 TI         49.3509   -3.3247   17.0924 Ti      1  UNL1        0.0000
   7016 H          41.0101   -2.6114   24.3903 H       1  UNL1        0.0000
   7017 H          52.1475   -7.5333   15.5656 H       1  UNL1        0.0000
   7018 H          36.5483   -7.2651   24.2273 H       1  UNL1        0.0000
   7019 H          54.7209   -1.6230   15.4456 H       1  UNL1        0.0000
   7020 H          47.4687  -14.7336   24.3572 H       1  UNL1        0.0000
   7021 H          41.0590   -0.1941   15.4344 H       1  UNL1        0.0000
   7022 H          45.6120   -1.2410   13.2392 H       1  UNL1        0.0000
   7023 H          49.4632   -3.8700   13.5450 H       1  UNL1        0.0000
   7024 H          47.0030  -11.3661   19.2320 H       1  UNL1        0.0000
   7025 H          44.3927    0.5545   20.6357 H       1  UNL1        0.0000
   7026 H          37.3848   -4.8557   22.3623 H       1  UNL1        0.0000
   7027 H          54.0935   -5.7116   17.5509 H       1  UNL1        0.0000
   7028 H          39.6859   -6.3032   19.0285 H       1  UNL1        0.0000
   7029 H          42.0175    2.2236   17.4656 H       1  UNL1        0.0000
   7030 H          45.5098    3.4986   15.9678 H       1  UNL1        0.0000
   7031 H          51.9897   -9.5521   16.7681 H      68  UNL68       0.0000
   7032 H          48.2087   -1.6024   15.6781 H       1  UNL1        0.0000
   7033 H          43.5242   -8.5963   24.0834 H       1  UNL1        0.0000
   7034 H          50.7279   -8.7642   23.1328 H       1  UNL1        0.0000
   7035 H          49.2467   -9.2332   23.8801 H       1  UNL1        0.0000
   7036 H          51.3020   -4.3305   22.0339 H       1  UNL1        0.0000
   7037 H          50.7323   -3.9719   20.4153 H       1  UNL1        0.0000
   7038 H          50.2390  -13.7190   22.9427 H       1  UNL1        0.0000
   7039 H          48.9599  -12.6184   23.4001 H       1  UNL1        0.0000
   7040 C          51.9167   -4.3685   18.1084 C.2     1  UNL1        0.0000
   7041 C          39.5477   -6.2471   21.7627 C.3     1  UNL1        0.0000
   7042 C          47.1854  -11.4554   21.8650 C.3     1  UNL1        0.0000
   7043 C          44.1800    0.6880   17.9761 C.3     1  UNL1        0.0000
   7044 C          52.8128   -4.9728   19.1036 C.2     1  UNL1        0.0000
   7045 C          38.6158   -5.6221   20.7856 C.ar    1  UNL1        0.0000
   7046 C          48.1256  -12.0697   20.9178 C.2     1  UNL1        0.0000
   7047 C          43.2902    1.3348   18.9759 C.ar    1  UNL1        0.0000
   7048 C          52.5640   -4.8979   20.5100 C.3     1  UNL1        0.0000
   7049 C          38.8322   -5.7420   19.3976 C.ar    1  UNL1        0.0000
   7050 C          49.2551  -12.8300   21.3709 C.2     1  UNL1        0.0000
   7051 C          42.1954    2.1077   18.5309 C.ar    1  UNL1        0.0000
   7052 C          43.5447    1.1640   20.3307 C.ar    1  UNL1        0.0000
   7053 C          47.8779  -11.9376   19.5339 C.3     1  UNL1        0.0000
   7054 C          53.9464   -5.6718   18.6279 C.3     1  UNL1        0.0000
   7055 C          37.5156   -4.9297   21.2843 C.ar    1  UNL1        0.0000
   7056 C          52.1285   -7.4542   13.4215 C.2     1  UNL1        0.0000
   7057 C          45.6588    4.3373   13.4465 C.ar    1  UNL1        0.0000
   7058 C          54.6129   -1.6911   13.2955 C.2     1  UNL1        0.0000
   7059 C          41.2546   -0.1487   13.2761 C.ar    1  UNL1        0.0000
   7060 C          46.8628   -3.6257   18.9813 C.3     1  UNL1        0.0000
   7061 C          42.1067  -10.7201   20.8994 C.2     1  UNL1        0.0000
   7062 C          51.9927   -5.9994   13.3983 C.2     1  UNL1        0.0000
   7063 C          45.5660    2.9038   13.4090 C.3     1  UNL1        0.0000
   7064 C          53.3151   -2.3080   13.3424 C.2     1  UNL1        0.0000
   7065 C          42.6569    0.2657   13.3006 C.3     1  UNL1        0.0000
   7066 C          52.1679   -8.1234   14.6512 C.3     1  UNL1        0.0000
   7067 C          41.0210   -2.0230   25.3042 C.ar    1  UNL1        0.0000
   7068 C          55.2682   -1.4163   14.5294 C.3     1  UNL1        0.0000
   7069 C          35.9868   -7.4445   25.1426 C.ar    1  UNL1        0.0000
   7070 C          50.6726   -8.4888   25.1571 C.3     1  UNL1        0.0000
   7071 C          40.5574   -0.3791   14.4886 C.ar    1  UNL1        0.0000
   7072 C          47.5104  -15.2607   25.3062 C.3     1  UNL1        0.0000
   7073 C          45.6726    5.0885   14.6758 C.ar    1  UNL1        0.0000
   7074 N          45.7276    4.4897   15.9139 N.pl3   1  UNL1        0.0000
   7075 N          50.0936   -8.6717   23.9181 N.3     1  UNL1        0.0000
   7076 N          51.4831   -4.2517   21.0413 N.3     1  UNL1        0.0000
   7077 N          49.5861  -12.9883   22.6883 N.pl3   1  UNL1        0.0000
   7078 O          50.7404   -3.9634   18.4742 O.2     1  UNL1        0.0000
   7079 O          40.3167   -7.1979   21.3644 O.3     1  UNL1        0.0000
   7080 O          47.5669  -11.3309   23.0861 O.3     1  UNL1        0.0000
   7081 O          44.1141    1.1176   16.7765 O.3     1  UNL1        0.0000
   7082 O          44.9504   -0.2692   18.3625 O.3     1  UNL1        0.0000
   7083 O          46.0150  -11.0869   21.4595 O.3     1  UNL1        0.0000
   7084 O          52.3286   -4.2877   16.8967 O.2     1  UNL1        0.0000
   7085 O          39.5057   -5.8108   22.9624 O.3     1  UNL1        0.0000
   7086 O          49.6561   -4.5426   15.8977 O.3     1  UNL1        0.0000
   7087 O          42.0099   -6.6840   23.4628 O.3     1  UNL1        0.0000
   7088 O          50.5949   -2.2553   16.3477 O.3     1  UNL1        0.0000
   7089 O          40.2577   -8.4087   23.9554 O.3     1  UNL1        0.0000
   7090 O          44.8642  -11.6166   24.0501 O.3     1  UNL1        0.0000
   7091 O          46.6327    0.2788   16.2782 O.3     1  UNL1        0.0000
   7092 O          45.8182   -9.3551   23.5860 O.3     1  UNL1        0.0000
   7093 O          44.9264   -1.4783   15.7608 O.3     1  UNL1        0.0000
   7094 O          47.2354  -12.4709   25.3522 O.2     1  UNL1        0.0000
   7095 O          45.4829    2.2024   14.5042 O.3     1  UNL1        0.0000
   7096 O          48.0376   -9.6827   25.3471 O.2     1  UNL1        0.0000
   7097 O          43.2470    0.3667   14.4441 O.3     1  UNL1        0.0000
   7098 O          52.7758   -2.6081   14.4903 O.2     1  UNL1        0.0000
   7099 O          38.6214   -6.5685   25.2782 O.3     1  UNL1        0.0000
   7100 O          51.9802   -5.3625   14.5197 O.2     1  UNL1        0.0000
   7101 O          40.8896   -4.7862   25.3594 O.3     1  UNL1        0.0000
   7102 O          47.8479   -2.1512   16.3987 O.3     1  UNL1        0.0000
   7103 O          43.1460   -9.1550   23.3798 O.3     1  UNL1        0.0000
   7104 O          50.3020   -3.3763   13.4659 O.3     1  UNL1        0.0000
   7105 O          45.7344   -0.2742   13.2992 O.3     1  UNL1        0.0000
   7106 H          46.9330   -7.4630   21.6401 H       1  UNL1        0.0000
   7107 H          43.0338  -13.1508   20.1875 H       1  UNL1        0.0000
   7108 H          47.7685    1.6189   18.8841 H      59  UNL59       0.0000
   7109 H          48.0531   -5.7054   20.2345 H       1  UNL1        0.0000
   7110 H          43.1372   -5.5151   21.0367 H       1  UNL1        0.0000
   7111 H          39.5827  -10.5911   19.9532 H       1  UNL1        0.0000
   7112 H          44.4836   -7.3612   22.0026 H       1  UNL1        0.0000
   7113 H          44.2639   -3.7481   19.6581 H       1  UNL1        0.0000
   7114 H          48.8508   -0.5771   18.4926 H      59  UNL59       0.0000
   7115 H          35.2304   -0.3845   19.0289 H       1  UNL1        0.0000
   7116 C          46.2223   -4.6256   19.8713 C.ar    1  UNL1        0.0000
   7117 C          44.9733   -6.5899   21.4094 C.ar    1  UNL1        0.0000
   7118 C          49.4188    0.2277   18.9600 C.2    59  UNL59       0.0000
   7119 C          41.3799  -11.7675   20.1370 C.2     1  UNL1        0.0000
   7120 C          44.8347   -4.5622   20.0998 C.ar    1  UNL1        0.0000
   7121 C          46.3570   -6.6486   21.2028 C.ar    1  UNL1        0.0000
   7122 C          48.8048    1.4665   19.1821 C.2    59  UNL59       0.0000
   7123 C          41.9977  -13.0072   19.8880 C.3     1  UNL1        0.0000
   7124 C          50.7565    0.0190   19.3153 C.3    59  UNL59       0.0000
   7125 C          40.0421  -11.5572   19.7543 C.3     1  UNL1        0.0000
   7126 C          46.9829   -5.6695   20.4283 C.ar    1  UNL1        0.0000
   7127 C          44.2120   -5.5486   20.8642 C.ar    1  UNL1        0.0000
   7128 O          48.1032   -3.7683   18.6799 O.3     1  UNL1        0.0000
   7129 O          41.4828   -9.6421   21.2127 O.2     1  UNL1        0.0000
   7130 O          43.3042  -10.9656   21.2885 O.2     1  UNL1        0.0000
   7131 O          46.1401   -2.6767   18.5135 O.3     1  UNL1        0.0000
   7132 N          49.3405    1.7398   38.4665 N.pl3  59  UNL59       0.0000
   7133 N          49.8152    0.9604   40.4515 N.pl3  59  UNL59       0.0000
   7134 C          50.0193    0.5447   38.2825 C.2    59  UNL59       0.0000
   7135 C          50.3199    0.0596   39.5291 C.2    59  UNL59       0.0000
   7136 C          51.1163    1.9099   42.3403 C.3    59  UNL59       0.0000
   7137 C          48.8478    2.6244   37.4029 C.3    59  UNL59       0.0000
   7138 C          49.2208    1.9688   39.7863 C.3    59  UNL59       0.0000
   7139 C          50.0299    0.9240   41.9166 C.3    59  UNL59       0.0000
   7140 H          50.2513    0.1487   37.3016 H      59  UNL59       0.0000
   7141 H          50.8380   -0.8417   39.8333 H      59  UNL59       0.0000
   7142 H          52.0711    1.6806   41.8501 H      59  UNL59       0.0000
   7143 H          49.6866    2.9084   36.7585 H      59  UNL59       0.0000
   7144 H          50.8385    2.9439   42.0998 H      59  UNL59       0.0000
   7145 H          48.0884    2.0856   36.8245 H      59  UNL59       0.0000
   7146 H          51.2613    1.8416   43.4269 H      59  UNL59       0.0000
   7147 H          50.3162   -0.1070   42.1640 H      59  UNL59       0.0000
   7148 H          48.4055    3.5134   37.8632 H      59  UNL59       0.0000
   7149 H          48.7211    2.8178   40.2359 H      59  UNL59       0.0000
   7150 H          49.0621    1.1294   42.3900 H      59  UNL59       0.0000
   7151 TI         35.8736  -13.5749   37.7043 Ti      1  UNL1        0.0000
   7152 TI         46.7041  -10.6937   28.3395 Ti      1  UNL1        0.0000
   7153 TI         39.9703  -17.5111   35.8843 Ti      1  UNL1        0.0000
   7154 TI         41.4815   -8.3490   30.1113 Ti      1  UNL1        0.0000
   7155 TI         40.4829   -6.6707   28.2069 Ti      1  UNL1        0.0000
   7156 TI         41.8585  -17.7654   37.8377 Ti      1  UNL1        0.0000
   7157 TI         36.8228  -15.3108   35.8128 Ti      1  UNL1        0.0000
   7158 TI         44.7162  -10.3911   30.1870 Ti      1  UNL1        0.0000
   7159 H          36.3755   -9.6778   37.4849 H       1  UNL1        0.0000
   7160 H          47.5128  -14.5997   28.6602 H       1  UNL1        0.0000
   7161 H          31.9137  -14.3315   37.3219 H       1  UNL1        0.0000
   7162 H          50.0862   -8.6894   28.5402 H       1  UNL1        0.0000
   7163 H          42.8341  -21.8000   37.4518 H       1  UNL1        0.0000
   7164 H          36.4244   -7.2606   28.5290 H       1  UNL1        0.0000
   7165 H          40.9773   -8.3075   26.3338 H       1  UNL1        0.0000
   7166 H          44.8285  -10.9364   26.6396 H       1  UNL1        0.0000
   7167 H          42.3684  -18.4326   32.3266 H       1  UNL1        0.0000
   7168 H          39.7580   -6.5119   33.7303 H       1  UNL1        0.0000
   7169 H          32.7502  -11.9222   35.4569 H       1  UNL1        0.0000
   7170 H          49.4588  -12.7780   30.6455 H       1  UNL1        0.0000
   7171 H          35.0513  -13.3696   32.1231 H       1  UNL1        0.0000
   7172 H          37.3828   -4.8428   30.5602 H       1  UNL1        0.0000
   7173 H          40.8751   -3.5678   29.0624 H       1  UNL1        0.0000
   7174 H          47.3550  -16.6186   29.8627 H      69  UNL69       0.0000
   7175 H          43.5741   -8.6688   28.7727 H       1  UNL1        0.0000
   7176 H          38.8896  -15.6627   37.1780 H       1  UNL1        0.0000
   7177 H          46.0932  -15.8306   36.2274 H       1  UNL1        0.0000
   7178 H          44.6121  -16.2997   36.9747 H       1  UNL1        0.0000
   7179 H          46.6673  -11.3970   35.1285 H       1  UNL1        0.0000
   7180 H          46.0976  -11.0384   33.5099 H       1  UNL1        0.0000
   7181 H          45.6044  -20.7854   36.0373 H       1  UNL1        0.0000
   7182 H          44.3253  -19.6848   36.4947 H       1  UNL1        0.0000
   7183 C          47.2821  -11.4349   31.2030 C.2     1  UNL1        0.0000
   7184 C          34.9130  -13.3135   34.8573 C.3     1  UNL1        0.0000
   7185 C          42.5508  -18.5218   34.9596 C.3     1  UNL1        0.0000
   7186 C          39.5453   -6.3785   31.0707 C.3     1  UNL1        0.0000
   7187 C          48.1781  -12.0392   32.1982 C.2     1  UNL1        0.0000
   7188 C          33.9811  -12.6885   33.8802 C.ar    1  UNL1        0.0000
   7189 C          43.4910  -19.1362   34.0124 C.2     1  UNL1        0.0000
   7190 C          38.6555   -5.7317   32.0705 C.ar    1  UNL1        0.0000
   7191 C          47.9294  -11.9643   33.6047 C.3     1  UNL1        0.0000
   7192 C          34.1975  -12.8085   32.4922 C.ar    1  UNL1        0.0000
   7193 C          44.6204  -19.8965   34.4655 C.2     1  UNL1        0.0000
   7194 C          37.5608   -4.9587   31.6255 C.ar    1  UNL1        0.0000
   7195 C          38.9100   -5.9024   33.4253 C.ar    1  UNL1        0.0000
   7196 C          43.2433  -19.0040   32.6285 C.3     1  UNL1        0.0000
   7197 C          49.3118  -12.7382   31.7225 C.3     1  UNL1        0.0000
   7198 C          32.8810  -11.9961   34.3789 C.ar    1  UNL1        0.0000
   7199 C          47.4939  -14.5207   26.5161 C.2     1  UNL1        0.0000
   7200 C          41.0241   -2.7291   26.5411 C.ar    1  UNL1        0.0000
   7201 C          49.9783   -8.7576   26.3901 C.2     1  UNL1        0.0000
   7202 C          36.6200   -7.2151   26.3707 C.ar    1  UNL1        0.0000
   7203 C          42.2282  -10.6921   32.0759 C.3     1  UNL1        0.0000
   7204 C          37.4721  -17.7865   33.9940 C.2     1  UNL1        0.0000
   7205 C          47.3580  -13.0658   26.4929 C.2     1  UNL1        0.0000
   7206 C          40.9314   -4.1626   26.5036 C.3     1  UNL1        0.0000
   7207 C          48.6805   -9.3744   26.4370 C.2     1  UNL1        0.0000
   7208 C          38.0223   -6.8008   26.3952 C.3     1  UNL1        0.0000
   7209 C          47.5332  -15.1898   27.7458 C.3     1  UNL1        0.0000
   7210 C          36.3864   -9.0894   38.3988 C.ar    1  UNL1        0.0000
   7211 C          50.6336   -8.4828   27.6241 C.3     1  UNL1        0.0000
   7212 C          31.3522  -14.5109   38.2372 C.ar    1  UNL1        0.0000
   7213 C          46.0380  -15.5553   38.2517 C.3     1  UNL1        0.0000
   7214 C          35.9228   -7.4455   27.5832 C.ar    1  UNL1        0.0000
   7215 C          42.8757  -22.3271   38.4008 C.3     1  UNL1        0.0000
   7216 C          41.0379   -1.9779   27.7704 C.ar    1  UNL1        0.0000
   7217 N          41.0930   -2.5767   29.0086 N.pl3   1  UNL1        0.0000
   7218 N          45.4589  -15.7381   37.0128 N.3     1  UNL1        0.0000
   7219 N          46.8485  -11.3181   34.1359 N.3     1  UNL1        0.0000
   7220 N          44.9514  -20.0547   35.7829 N.pl3   1  UNL1        0.0000
   7221 O          46.1058  -11.0298   31.5688 O.2     1  UNL1        0.0000
   7222 O          35.6820  -14.2644   34.4590 O.3     1  UNL1        0.0000
   7223 O          42.9322  -18.3973   36.1807 O.3     1  UNL1        0.0000
   7224 O          39.4795   -5.9488   29.8711 O.3     1  UNL1        0.0000
   7225 O          40.3158   -7.3357   31.4571 O.3     1  UNL1        0.0000
   7226 O          41.3803  -18.1534   34.5541 O.3     1  UNL1        0.0000
   7227 O          47.6940  -11.3542   29.9913 O.2     1  UNL1        0.0000
   7228 O          34.8710  -12.8773   36.0570 O.3     1  UNL1        0.0000
   7229 O          45.0215  -11.6090   28.9923 O.3     1  UNL1        0.0000
   7230 O          37.3752  -13.7504   36.5574 O.3     1  UNL1        0.0000
   7231 O          45.9603   -9.3218   29.4423 O.3     1  UNL1        0.0000
   7232 O          35.6231  -15.4751   37.0500 O.3     1  UNL1        0.0000
   7233 O          40.2296  -18.6831   37.1448 O.3     1  UNL1        0.0000
   7234 O          41.9980   -6.7877   29.3728 O.3     1  UNL1        0.0000
   7235 O          41.1835  -16.4216   36.6806 O.3     1  UNL1        0.0000
   7236 O          40.2918   -8.5448   28.8554 O.3     1  UNL1        0.0000
   7237 O          42.6008  -19.5373   38.4468 O.2     1  UNL1        0.0000
   7238 O          40.8483   -4.8640   27.5988 O.3     1  UNL1        0.0000
   7239 O          43.4029  -16.7491   38.4417 O.2     1  UNL1        0.0000
   7240 O          38.6123   -6.6998   27.5387 O.3     1  UNL1        0.0000
   7241 O          48.1411   -9.6746   27.5849 O.2     1  UNL1        0.0000
   7242 O          33.9868  -13.6350   38.3728 O.3     1  UNL1        0.0000
   7243 O          47.3456  -12.4289   27.6144 O.2     1  UNL1        0.0000
   7244 O          36.2550  -11.8526   38.4540 O.3     1  UNL1        0.0000
   7245 O          43.2133   -9.2176   29.4934 O.3     1  UNL1        0.0000
   7246 O          38.5113  -16.2214   36.4744 O.3     1  UNL1        0.0000
   7247 O          45.6674  -10.4427   26.5606 O.3     1  UNL1        0.0000
   7248 O          41.0997   -7.3407   26.3938 O.3     1  UNL1        0.0000
   7249 H          42.2983  -14.5295   34.7347 H       1  UNL1        0.0000
   7250 H          38.3991  -20.2173   33.2821 H       1  UNL1        0.0000
   7251 H          43.1339   -5.4476   31.9788 H      59  UNL59       0.0000
   7252 H          43.4184  -12.7719   33.3291 H       1  UNL1        0.0000
   7253 H          38.5026  -12.5815   34.1313 H       1  UNL1        0.0000
   7254 H          34.9481  -17.6576   33.0478 H       1  UNL1        0.0000
   7255 H          39.8489  -14.4277   35.0972 H       1  UNL1        0.0000
   7256 H          39.6293  -10.8145   32.7527 H       1  UNL1        0.0000
   7257 H          44.2162   -7.6436   31.5872 H      59  UNL59       0.0000
   7258 H          30.5958   -7.4509   32.1235 H       1  UNL1        0.0000
   7259 C          41.5876  -11.6920   32.9659 C.ar    1  UNL1        0.0000
   7260 C          40.3386  -13.6564   34.5040 C.ar    1  UNL1        0.0000
   7261 C          44.7841   -6.8387   32.0546 C.2    59  UNL59       0.0000
   7262 C          36.7453  -18.8340   33.2316 C.2     1  UNL1        0.0000
   7263 C          40.2000  -11.6286   33.1944 C.ar    1  UNL1        0.0000
   7264 C          41.7224  -13.7151   34.2974 C.ar    1  UNL1        0.0000
   7265 C          44.1702   -5.6000   32.2767 C.2    59  UNL59       0.0000
   7266 C          37.3630  -20.0737   32.9826 C.3     1  UNL1        0.0000
   7267 C          46.1219   -7.0475   32.4099 C.3    59  UNL59       0.0000
   7268 C          35.4075  -18.6236   32.8489 C.3     1  UNL1        0.0000
   7269 C          42.3483  -12.7360   33.5230 C.ar    1  UNL1        0.0000
   7270 C          39.5773  -12.6151   33.9588 C.ar    1  UNL1        0.0000
   7271 O          43.4686  -10.8347   31.7745 O.3     1  UNL1        0.0000
   7272 O          36.8482  -16.7086   34.3073 O.2     1  UNL1        0.0000
   7273 O          38.6695  -18.0320   34.3831 O.2     1  UNL1        0.0000
   7274 O          41.5055   -9.7431   31.6081 O.3     1  UNL1        0.0000
   7275 N          44.7058   -5.3266   51.5611 N.pl3  59  UNL59       0.0000
   7276 N          45.1805   -6.1061   53.5461 N.pl3  59  UNL59       0.0000
   7277 C          45.3846   -6.5217   51.3771 C.2    59  UNL59       0.0000
   7278 C          45.6852   -7.0068   52.6237 C.2    59  UNL59       0.0000
   7279 C          46.4817   -5.1566   55.4350 C.3    59  UNL59       0.0000
   7280 C          44.2132   -4.4420   50.4975 C.3    59  UNL59       0.0000
   7281 C          44.5861   -5.0977   52.8809 C.3    59  UNL59       0.0000
   7282 C          45.3952   -6.1424   55.0112 C.3    59  UNL59       0.0000
   7283 H          45.6167   -6.9178   50.3962 H      59  UNL59       0.0000
   7284 H          46.2034   -7.9081   52.9279 H      59  UNL59       0.0000
   7285 H          47.4364   -5.3859   54.9447 H      59  UNL59       0.0000
   7286 H          45.0520   -4.1580   49.8531 H      59  UNL59       0.0000
   7287 H          46.2038   -4.1225   55.1944 H      59  UNL59       0.0000
   7288 H          43.4538   -4.9808   49.9191 H      59  UNL59       0.0000
   7289 H          46.6266   -5.2249   56.5215 H      59  UNL59       0.0000
   7290 H          45.6815   -7.1735   55.2586 H      59  UNL59       0.0000
   7291 H          43.7709   -3.5530   50.9578 H      59  UNL59       0.0000
   7292 H          44.0864   -4.2487   53.3305 H      59  UNL59       0.0000
   7293 H          44.4274   -5.9371   55.4846 H      59  UNL59       0.0000
   7294 TI         31.2389  -20.6413   50.7989 Ti      1  UNL1        0.0000
   7295 TI         42.0694  -17.7601   41.4341 Ti      1  UNL1        0.0000
   7296 TI         35.3356  -24.5775   48.9789 Ti      1  UNL1        0.0000
   7297 TI         36.8468  -15.4154   43.2059 Ti      1  UNL1        0.0000
   7298 TI         35.8482  -13.7371   41.3015 Ti      1  UNL1        0.0000
   7299 TI         37.2238  -24.8319   50.9323 Ti      1  UNL1        0.0000
   7300 TI         32.1881  -22.3772   48.9075 Ti      1  UNL1        0.0000
   7301 TI         40.0816  -17.4576   43.2816 Ti      1  UNL1        0.0000
   7302 H          31.7408  -16.7443   50.5795 H      59  UNL59       0.0000
   7303 H          42.8782  -21.6662   41.7548 H       1  UNL1        0.0000
   7304 H          27.2790  -21.3980   50.4165 H      59  UNL59       0.0000
   7305 H          45.4516  -15.7558   41.6348 H       1  UNL1        0.0000
   7306 H          38.1994  -28.8664   50.5464 H      59  UNL59       0.0000
   7307 H          31.7897  -14.3270   41.6236 H       1  UNL1        0.0000
   7308 H          36.3427  -15.3739   39.4284 H       1  UNL1        0.0000
   7309 H          40.1939  -18.0028   39.7342 H       1  UNL1        0.0000
   7310 H          37.7337  -25.4990   45.4212 H       1  UNL1        0.0000
   7311 H          35.1234  -13.5784   46.8249 H       1  UNL1        0.0000
   7312 H          28.1155  -18.9886   48.5515 H       1  UNL1        0.0000
   7313 H          44.8242  -19.8445   43.7401 H       1  UNL1        0.0000
   7314 H          30.4166  -20.4360   45.2177 H       1  UNL1        0.0000
   7315 H          32.7482  -11.9092   43.6548 H       1  UNL1        0.0000
   7316 H          36.2405  -10.6343   42.1570 H       1  UNL1        0.0000
   7317 H          42.7204  -23.6850   42.9573 H      70  UNL70       0.0000
   7318 H          38.9394  -15.7353   41.8673 H       1  UNL1        0.0000
   7319 H          34.2549  -22.7291   50.2726 H       1  UNL1        0.0000
   7320 H          41.4586  -22.8970   49.3220 H      59  UNL59       0.0000
   7321 H          39.9774  -23.3661   50.0693 H      59  UNL59       0.0000
   7322 H          42.0327  -18.4634   48.2231 H       1  UNL1        0.0000
   7323 H          41.4630  -18.1048   46.6045 H       1  UNL1        0.0000
   7324 H          40.9698  -27.8519   49.1320 H       1  UNL1        0.0000
   7325 H          39.6906  -26.7513   49.5893 H       1  UNL1        0.0000
   7326 C          42.6474  -18.5014   44.2976 C.2     1  UNL1        0.0000
   7327 C          30.2784  -20.3800   47.9519 C.3     1  UNL1        0.0000
   7328 C          37.9161  -25.5882   48.0542 C.3     1  UNL1        0.0000
   7329 C          34.9107  -13.4449   44.1653 C.3     1  UNL1        0.0000
   7330 C          43.5435  -19.1057   45.2928 C.2     1  UNL1        0.0000
   7331 C          29.3465  -19.7549   46.9749 C.ar    1  UNL1        0.0000
   7332 C          38.8563  -26.2026   47.1070 C.2     1  UNL1        0.0000
   7333 C          34.0209  -12.7981   45.1651 C.ar    1  UNL1        0.0000
   7334 C          43.2947  -19.0308   46.6993 C.3     1  UNL1        0.0000
   7335 C          29.5629  -19.8749   45.5868 C.ar    1  UNL1        0.0000
   7336 C          39.9858  -26.9629   47.5601 C.2     1  UNL1        0.0000
   7337 C          32.9262  -12.0251   44.7201 C.ar    1  UNL1        0.0000
   7338 C          34.2754  -12.9689   46.5200 C.ar    1  UNL1        0.0000
   7339 C          38.6086  -26.0705   45.7231 C.3     1  UNL1        0.0000
   7340 C          44.6771  -19.8047   44.8171 C.3     1  UNL1        0.0000
   7341 C          28.2463  -19.0625   47.4735 C.ar    1  UNL1        0.0000
   7342 C          42.8592  -21.5871   39.6107 C.2     1  UNL1        0.0000
   7343 C          36.3895   -9.7955   39.6357 C.ar    1  UNL1        0.0000
   7344 C          45.3437  -15.8240   39.4847 C.2     1  UNL1        0.0000
   7345 C          31.9853  -14.2816   39.4653 C.ar    1  UNL1        0.0000
   7346 C          37.5935  -17.7586   45.1705 C.3     1  UNL1        0.0000
   7347 C          32.8374  -24.8530   47.0886 C.2     1  UNL1        0.0000
   7348 C          42.7234  -20.1323   39.5875 C.2     1  UNL1        0.0000
   7349 C          36.2967  -11.2290   39.5982 C.3     1  UNL1        0.0000
   7350 C          44.0458  -16.4408   39.5316 C.2     1  UNL1        0.0000
   7351 C          33.3876  -13.8672   39.4898 C.3     1  UNL1        0.0000
   7352 C          42.8986  -22.2562   40.8404 C.3     1  UNL1        0.0000
   7353 C          31.7517  -16.1559   51.4934 C.2    59  UNL59       0.0000
   7354 C          45.9990  -15.5492   40.7187 C.3     1  UNL1        0.0000
   7355 C          26.7175  -21.5773   51.3318 C.2    59  UNL59       0.0000
   7356 C          41.4033  -22.6217   51.3463 C.3    59  UNL59       0.0000
   7357 C          31.2881  -14.5120   40.6778 C.ar    1  UNL1        0.0000
   7358 C          38.2411  -29.3936   51.4954 C.3    71  UNL71       0.0000
   7359 C          36.4033   -9.0443   40.8650 C.ar    1  UNL1        0.0000
   7360 N          36.4583   -9.6432   42.1032 N.pl3   1  UNL1        0.0000
   7361 N          40.8243  -22.8046   50.1074 N.3    59  UNL59       0.0000
   7362 N          42.2138  -18.3845   47.2306 N.3     1  UNL1        0.0000
   7363 N          40.3168  -27.1211   48.8775 N.pl3   1  UNL1        0.0000
   7364 O          41.4711  -18.0963   44.6634 O.2     1  UNL1        0.0000
   7365 O          31.0474  -21.3308   47.5536 O.3     1  UNL1        0.0000
   7366 O          38.2976  -25.4638   49.2753 O.3     1  UNL1        0.0000
   7367 O          34.8448  -13.0152   42.9657 O.3     1  UNL1        0.0000
   7368 O          35.6812  -14.4021   44.5517 O.3     1  UNL1        0.0000
   7369 O          36.7457  -25.2198   47.6487 O.3     1  UNL1        0.0000
   7370 O          43.0593  -18.4206   43.0859 O.2     1  UNL1        0.0000
   7371 O          30.2364  -19.9437   49.1516 O.3     1  UNL1        0.0000
   7372 O          40.3868  -18.6755   42.0869 O.3     1  UNL1        0.0000
   7373 O          32.7406  -20.8169   49.6520 O.3     1  UNL1        0.0000
   7374 O          41.3256  -16.3882   42.5369 O.3     1  UNL1        0.0000
   7375 O          30.9884  -22.5416   50.1446 O.3     1  UNL1        0.0000
   7376 O          35.5949  -25.7495   50.2394 O.3     1  UNL1        0.0000
   7377 O          37.3634  -13.8541   42.4674 O.3     1  UNL1        0.0000
   7378 O          36.5489  -23.4880   49.7752 O.3     1  UNL1        0.0000
   7379 O          35.6571  -15.6112   41.9500 O.3     1  UNL1        0.0000
   7380 O          37.9662  -26.6037   51.5414 O.3     1  UNL1        0.0000
   7381 O          36.2136  -11.9305   40.6934 O.3     1  UNL1        0.0000
   7382 O          38.7683  -23.8156   51.5363 O.3     1  UNL1        0.0000
   7383 O          33.9777  -13.7662   40.6334 O.3     1  UNL1        0.0000
   7384 O          43.5065  -16.7410   40.6796 O.2     1  UNL1        0.0000
   7385 O          29.3522  -20.7014   51.4674 O.3     1  UNL1        0.0000
   7386 O          42.7109  -19.4953   40.7090 O.2     1  UNL1        0.0000
   7387 O          31.6203  -18.9191   51.5486 O.3     1  UNL1        0.0000
   7388 O          38.5786  -16.2840   42.5880 O.3     1  UNL1        0.0000
   7389 O          33.8767  -23.2878   49.5690 O.3     1  UNL1        0.0000
   7390 O          41.0327  -17.5092   39.6552 O.3     1  UNL1        0.0000
   7391 O          36.4651  -14.4071   39.4884 O.3     1  UNL1        0.0000
   7392 H          37.6637  -21.5959   47.8293 H       1  UNL1        0.0000
   7393 H          33.7645  -27.2837   46.3767 H       1  UNL1        0.0000
   7394 H          38.4992  -12.5140   45.0734 H      59  UNL59       0.0000
   7395 H          38.7838  -19.8383   46.4237 H       1  UNL1        0.0000
   7396 H          33.8679  -19.6479   47.2260 H       1  UNL1        0.0000
   7397 H          30.3134  -24.7240   46.1424 H       1  UNL1        0.0000
   7398 H          35.2143  -21.4941   48.1918 H       1  UNL1        0.0000
   7399 H          34.9946  -17.8810   45.8473 H       1  UNL1        0.0000
   7400 H          39.5815  -14.7100   44.6818 H      59  UNL59       0.0000
   7401 H          25.9611  -14.5173   45.2181 H       1  UNL1        0.0000
   7402 C          36.9530  -18.7584   46.0605 C.ar    1  UNL1        0.0000
   7403 C          35.7040  -20.7228   47.5986 C.ar    1  UNL1        0.0000
   7404 C          40.1495  -13.9052   45.1492 C.2    59  UNL59       0.0000
   7405 C          32.1106  -25.9004   46.3262 C.2     1  UNL1        0.0000
   7406 C          35.5654  -18.6951   46.2890 C.ar    1  UNL1        0.0000
   7407 C          37.0877  -20.7815   47.3920 C.ar    1  UNL1        0.0000
   7408 C          39.5355  -12.6664   45.3713 C.2    59  UNL59       0.0000
   7409 C          32.7284  -27.1401   46.0772 C.3     1  UNL1        0.0000
   7410 C          41.4873  -14.1139   45.5045 C.3    59  UNL59       0.0000
   7411 C          30.7729  -25.6901   45.9435 C.3     1  UNL1        0.0000
   7412 C          37.7137  -19.8024   46.6176 C.ar    1  UNL1        0.0000
   7413 C          34.9427  -19.6815   47.0534 C.ar    1  UNL1        0.0000
   7414 O          38.8339  -17.9011   44.8691 O.3     1  UNL1        0.0000
   7415 O          32.2135  -23.7750   47.4019 O.2     1  UNL1        0.0000
   7416 O          34.0349  -25.0985   47.4777 O.2     1  UNL1        0.0000
   7417 O          36.8708  -16.8095   44.7027 O.3     1  UNL1        0.0000
   7418 N          40.0712  -12.3931   64.6557 N.pl3  59  UNL59       0.0000
   7419 N          40.5459  -13.1725   66.6407 N.pl3  59  UNL59       0.0000
   7420 C          40.7500  -13.5882   64.4717 C.2    59  UNL59       0.0000
   7421 C          41.0506  -14.0732   65.7183 C.2    59  UNL59       0.0000
   7422 C          41.8470  -12.2230   68.5296 C.3    59  UNL59       0.0000
   7423 C          39.5785  -11.5085   63.5922 C.3    59  UNL59       0.0000
   7424 C          39.9515  -12.1641   65.9755 C.3    59  UNL59       0.0000
   7425 C          40.7606  -13.2088   68.1058 C.3    59  UNL59       0.0000
   7426 H          40.9820  -13.9842   63.4908 H      59  UNL59       0.0000
   7427 H          41.5687  -14.9745   66.0225 H      59  UNL59       0.0000
   7428 H          42.8018  -12.4523   68.0393 H      59  UNL59       0.0000
   7429 H          40.4173  -11.2245   62.9477 H      59  UNL59       0.0000
   7430 H          41.5692  -11.1890   68.2890 H      59  UNL59       0.0000
   7431 H          38.8191  -12.0472   63.0137 H      59  UNL59       0.0000
   7432 H          41.9920  -12.2913   69.6161 H      59  UNL59       0.0000
   7433 H          41.0469  -14.2399   68.3532 H      59  UNL59       0.0000
   7434 H          39.1362  -10.6195   64.0524 H      59  UNL59       0.0000
   7435 H          39.4518  -11.3151   66.4251 H      59  UNL59       0.0000
   7436 H          39.7928  -13.0035   68.5793 H      59  UNL59       0.0000
   7437 TI         38.6258   15.1705   11.4586 Ti      1  UNL1        0.0000
   7438 TI         49.4563   18.0517    2.0938 Ti      1  UNL1        0.0000
   7439 TI         42.7225   11.2343    9.6386 Ti      1  UNL1        0.0000
   7440 TI         44.2337   20.3964    3.8656 Ti      1  UNL1        0.0000
   7441 TI         43.2351   22.0747    1.9612 Ti      1  UNL1        0.0000
   7442 TI         44.6107   10.9799   11.5920 Ti      1  UNL1        0.0000
   7443 TI         39.5750   13.4346    9.5671 Ti      1  UNL1        0.0000
   7444 TI         47.4685   18.3542    3.9412 Ti      1  UNL1        0.0000
   7445 H          39.1277   19.0676   11.2391 H       1  UNL1        0.0000
   7446 H          50.2651   14.1456    2.4145 H       1  UNL1        0.0000
   7447 H          34.6659   14.4139   11.0761 H       1  UNL1        0.0000
   7448 H          52.8385   20.0560    2.2944 H       1  UNL1        0.0000
   7449 H          45.5863    6.9454   11.2060 H       1  UNL1        0.0000
   7450 H          39.1766   21.4848    2.2832 H       1  UNL1        0.0000
   7451 H          43.7296   20.4379    0.0881 H       1  UNL1        0.0000
   7452 H          47.5808   17.8090    0.3938 H       1  UNL1        0.0000
   7453 H          45.1206   10.3128    6.0809 H       1  UNL1        0.0000
   7454 H          42.5103   22.2334    7.4845 H       1  UNL1        0.0000
   7455 H          35.5024   16.8232    9.2112 H       1  UNL1        0.0000
   7456 H          52.2111   15.9674    4.3998 H       1  UNL1        0.0000
   7457 H          37.8035   15.3758    5.8774 H       1  UNL1        0.0000
   7458 H          40.1351   23.9026    4.3144 H       1  UNL1        0.0000
   7459 H          43.6274   25.1776    2.8167 H       1  UNL1        0.0000
   7460 H          50.1073   12.1268    3.6169 H       1  UNL1        0.0000
   7461 H          46.3263   20.0765    2.5269 H       1  UNL1        0.0000
   7462 H          41.6418   13.0827   10.9322 H       1  UNL1        0.0000
   7463 H          48.8455   12.9148    9.9816 H       1  UNL1        0.0000
   7464 H          47.3644   12.4457   10.7290 H       1  UNL1        0.0000
   7465 H          49.4196   17.3484    8.8827 H       1  UNL1        0.0000
   7466 H          48.8499   17.7070    7.2642 H       1  UNL1        0.0000
   7467 H          48.3567    7.9600    9.7916 H       1  UNL1        0.0000
   7468 H          47.0775    9.0605   10.2490 H       1  UNL1        0.0000
   7469 C          50.0344   17.3105    4.9573 C.2     1  UNL1        0.0000
   7470 C          37.6653   15.4319    8.6116 C.3     1  UNL1        0.0000
   7471 C          45.3030   10.2236    8.7139 C.3     1  UNL1        0.0000
   7472 C          42.2976   22.3669    4.8249 C.3     1  UNL1        0.0000
   7473 C          50.9304   16.7061    5.9525 C.2     1  UNL1        0.0000
   7474 C          36.7334   16.0569    7.6345 C.ar    1  UNL1        0.0000
   7475 C          46.2432    9.6092    7.7667 C.ar    1  UNL1        0.0000
   7476 C          41.4078   23.0137    5.8247 C.ar    1  UNL1        0.0000
   7477 C          50.6816   16.7811    7.3589 C.3     1  UNL1        0.0000
   7478 C          36.9498   15.9369    6.2465 C.ar    1  UNL1        0.0000
   7479 C          47.3727    8.8489    8.2198 C.ar    1  UNL1        0.0000
   7480 C          40.3131   23.7867    5.3798 C.ar    1  UNL1        0.0000
   7481 C          41.6623   22.8430    7.1796 C.ar    1  UNL1        0.0000
   7482 C          45.9955    9.7414    6.3828 C.ar    1  UNL1        0.0000
   7483 C          52.0641   16.0072    5.4768 C.3     1  UNL1        0.0000
   7484 C          35.6332   16.7493    8.1332 C.ar    1  UNL1        0.0000
   7485 C          50.2461   14.2247    0.2704 C.2     1  UNL1        0.0000
   7486 C          43.7764   26.0163    0.2954 C.2     1  UNL1        0.0000
   7487 C          52.7306   19.9878    0.1444 C.2     1  UNL1        0.0000
   7488 C          39.3722   21.5303    0.1250 C.2     1  UNL1        0.0000
   7489 C          44.9804   18.0532    5.8302 C.3     1  UNL1        0.0000
   7490 C          40.2244   10.9589    7.7483 C.3     1  UNL1        0.0000
   7491 C          50.1103   15.6796    0.2472 C.2     1  UNL1        0.0000
   7492 C          43.6836   24.5828    0.2579 C.2     1  UNL1        0.0000
   7493 C          51.4327   19.3710    0.1912 C.2     1  UNL1        0.0000
   7494 C          40.7745   21.9446    0.1494 C.2     1  UNL1        0.0000
   7495 C          50.2855   13.5556    1.5000 C.2     1  UNL1        0.0000
   7496 C          39.1386   19.6560   12.1530 C.ar    1  UNL1        0.0000
   7497 C          53.3859   20.2626    1.3783 C.3     1  UNL1        0.0000
   7498 C          34.1045   14.2345   11.9915 C.ar    1  UNL1        0.0000
   7499 C          48.7902   13.1901   12.0060 C.3     1  UNL1        0.0000
   7500 C          38.6750   21.2998    1.3374 C.2     1  UNL1        0.0000
   7501 C          45.6280    6.4182   12.1551 C.ar    1  UNL1        0.0000
   7502 C          43.7902   26.7675    1.5247 C.2     1  UNL1        0.0000
   7503 N          43.8452   26.1687    2.7628 N.pl3   1  UNL1        0.0000
   7504 N          48.2112   13.0073   10.7670 N.3     1  UNL1        0.0000
   7505 N          49.6007   17.4273    7.8902 N.3     1  UNL1        0.0000
   7506 N          47.7037    8.6907    9.5372 N.pl3   1  UNL1        0.0000
   7507 O          48.8580   17.7155    5.3231 O.2     1  UNL1        0.0000
   7508 O          38.4343   14.4810    8.2133 O.3     1  UNL1        0.0000
   7509 O          45.6845   10.3481    9.9350 O.3     1  UNL1        0.0000
   7510 O          42.2317   22.7966    3.6253 O.3     1  UNL1        0.0000
   7511 O          43.0681   21.4097    5.2114 O.3     1  UNL1        0.0000
   7512 O          44.1326   10.5920    8.3084 O.3     1  UNL1        0.0000
   7513 O          50.4462   17.3912    3.7456 O.2     1  UNL1        0.0000
   7514 O          37.6233   15.8681    9.8113 O.3     1  UNL1        0.0000
   7515 O          47.7737   17.1363    2.7465 O.3     1  UNL1        0.0000
   7516 O          40.1275   14.9949   10.3116 O.3     1  UNL1        0.0000
   7517 O          48.7125   19.4236    3.1965 O.3     1  UNL1        0.0000
   7518 O          38.3753   13.2703   10.8043 O.3     1  UNL1        0.0000
   7519 O          42.9818   10.0623   10.8990 O.3     1  UNL1        0.0000
   7520 O          44.7503   21.9577    3.1271 O.3     1  UNL1        0.0000
   7521 O          43.9358   12.3238   10.4348 O.3     1  UNL1        0.0000
   7522 O          43.0440   20.2006    2.6097 O.3     1  UNL1        0.0000
   7523 O          45.3531    9.2081   12.2011 O.3     1  UNL1        0.0000
   7524 O          43.6005   23.8813    1.3531 O.2     1  UNL1        0.0000
   7525 O          46.1552   11.9963   12.1960 O.2     1  UNL1        0.0000
   7526 O          41.3646   22.0456    1.2930 O.2     1  UNL1        0.0000
   7527 O          50.8934   19.0708    1.3392 O.2     1  UNL1        0.0000
   7528 O          36.7391   15.1104   12.1270 O.3     1  UNL1        0.0000
   7529 O          50.0978   16.3165    1.3686 O.2     1  UNL1        0.0000
   7530 O          39.0073   16.8928   12.2083 O.3     1  UNL1        0.0000
   7531 O          45.9655   19.5278    3.2476 O.3     1  UNL1        0.0000
   7532 O          41.2636   12.5240   10.2286 O.3     1  UNL1        0.0000
   7533 O          48.4196   18.3027    0.3148 O.3     1  UNL1        0.0000
   7534 O          43.8520   21.4047    0.1481 O.3     1  UNL1        0.0000
   7535 H          45.0506   14.2159    8.4890 H       1  UNL1        0.0000
   7536 H          41.1514    8.5281    7.0364 H       1  UNL1        0.0000
   7537 H          45.8861   23.2978    5.7330 H      59  UNL59       0.0000
   7538 H          46.1707   15.9735    7.0834 H       1  UNL1        0.0000
   7539 H          41.2548   16.1639    7.8856 H       1  UNL1        0.0000
   7540 H          37.7003   11.0878    6.8021 H       1  UNL1        0.0000
   7541 H          42.6012   14.3177    8.8515 H       1  UNL1        0.0000
   7542 H          42.3815   17.9308    6.5069 H       1  UNL1        0.0000
   7543 H          46.9684   21.1018    5.3414 H      59  UNL59       0.0000
   7544 H          33.3480   21.2945    5.8778 H       1  UNL1        0.0000
   7545 C          44.3399   17.0534    6.7201 C.ar    1  UNL1        0.0000
   7546 C          43.0909   15.0890    8.2583 C.ar    1  UNL1        0.0000
   7547 C          47.5364   21.9067    5.8088 C.2    59  UNL59       0.0000
   7548 C          39.4975    9.9114    6.9858 C.ar    1  UNL1        0.0000
   7549 C          42.9523   17.1168    6.9487 C.ar    1  UNL1        0.0000
   7550 C          44.4746   15.0303    8.0517 C.ar    1  UNL1        0.0000
   7551 C          46.9224   23.1454    6.0310 C.2    59  UNL59       0.0000
   7552 C          40.1153    8.6717    6.7368 C.ar    1  UNL1        0.0000
   7553 C          48.8742   21.6979    6.1641 C.3    59  UNL59       0.0000
   7554 C          38.1598   10.1217    6.6032 C.ar    1  UNL1        0.0000
   7555 C          45.1006   16.0094    7.2772 C.ar    1  UNL1        0.0000
   7556 C          42.3296   16.1303    7.7131 C.ar    1  UNL1        0.0000
   7557 O          46.2208   17.9107    5.5288 O.3     1  UNL1        0.0000
   7558 O          39.6005   12.0368    8.0616 O.3     1  UNL1        0.0000
   7559 O          41.4218   10.7134    8.1374 O.3     1  UNL1        0.0000
   7560 O          44.2577   19.0023    5.3624 O.3     1  UNL1        0.0000
   7561 N          47.4581   23.4188   25.3153 N.pl3  59  UNL59       0.0000
   7562 N          47.9328   22.6393   27.3004 N.pl3  59  UNL59       0.0000
   7563 C          48.1369   22.2236   25.1313 C.2    59  UNL59       0.0000
   7564 C          48.4375   21.7386   26.3780 C.2    59  UNL59       0.0000
   7565 C          49.2340   23.5888   29.1892 C.3    59  UNL59       0.0000
   7566 C          46.9654   24.3034   24.2518 C.3    59  UNL59       0.0000
   7567 C          47.3384   23.6477   26.6352 C.3    59  UNL59       0.0000
   7568 C          48.1475   22.6030   28.7654 C.3    59  UNL59       0.0000
   7569 H          48.3689   21.8276   24.1505 H      59  UNL59       0.0000
   7570 H          48.9557   20.8373   26.6822 H      59  UNL59       0.0000
   7571 H          50.1887   23.3595   28.6990 H      59  UNL59       0.0000
   7572 H          47.8042   24.5873   23.6074 H      59  UNL59       0.0000
   7573 H          48.9561   24.6228   28.9487 H      59  UNL59       0.0000
   7574 H          46.2060   23.7646   23.6734 H      59  UNL59       0.0000
   7575 H          49.3789   23.5205   30.2757 H      59  UNL59       0.0000
   7576 H          48.4338   21.5719   29.0129 H      59  UNL59       0.0000
   7577 H          46.5231   25.1924   24.7121 H      59  UNL59       0.0000
   7578 H          46.8387   24.4967   27.0848 H      59  UNL59       0.0000
   7579 H          47.1797   22.8083   29.2389 H      59  UNL59       0.0000
   7580 TI         33.9912    8.1040   24.5532 Ti      1  UNL1        0.0000
   7581 TI         44.8217   10.9853   15.1884 Ti      1  UNL1        0.0000
   7582 TI         38.0879    4.1678   22.7332 Ti      1  UNL1        0.0000
   7583 TI         39.5991   13.3300   16.9602 Ti      1  UNL1        0.0000
   7584 TI         38.6005   15.0083   15.0558 Ti      1  UNL1        0.0000
   7585 TI         39.9761    3.9135   24.6866 Ti      1  UNL1        0.0000
   7586 TI         34.9404    6.3681   22.6617 Ti      1  UNL1        0.0000
   7587 TI         42.8339   11.2878   17.0358 Ti      1  UNL1        0.0000
   7588 H          34.4931   12.0011   24.3337 H       1  UNL1        0.0000
   7589 H          45.6305    7.0792   15.5091 H       1  UNL1        0.0000
   7590 H          30.0313    7.3474   24.1707 H       1  UNL1        0.0000
   7591 H          48.2038   12.9896   15.3890 H       1  UNL1        0.0000
   7592 H          40.9517   -0.1210   24.3007 H       1  UNL1        0.0000
   7593 H          34.5420   14.4184   15.3778 H       1  UNL1        0.0000
   7594 H          39.0950   13.3715   13.1827 H       1  UNL1        0.0000
   7595 H          42.9461   10.7426   13.4884 H       1  UNL1        0.0000
   7596 H          40.4860    3.2464   19.1755 H       1  UNL1        0.0000
   7597 H          37.8756   15.1670   20.5791 H       1  UNL1        0.0000
   7598 H          30.8678    9.7568   22.3058 H       1  UNL1        0.0000
   7599 H          47.5764    8.9009   17.4944 H       1  UNL1        0.0000
   7600 H          33.1689    8.3093   18.9720 H       1  UNL1        0.0000
   7601 H          35.5004   16.8361   17.4090 H       1  UNL1        0.0000
   7602 H          38.9927   18.1111   15.9113 H       1  UNL1        0.0000
   7603 H          45.4726    5.0604   16.7116 H       1  UNL1        0.0000
   7604 H          41.6917   13.0101   15.6216 H       1  UNL1        0.0000
   7605 H          37.0072    6.0162   24.0268 H       1  UNL1        0.0000
   7606 H          44.2108    5.8484   23.0762 H       1  UNL1        0.0000
   7607 H          42.7297    5.3793   23.8236 H       1  UNL1        0.0000
   7608 H          44.7850   10.2820   21.9773 H       1  UNL1        0.0000
   7609 H          44.2152   10.6406   20.3588 H       1  UNL1        0.0000
   7610 H          43.7220    0.8935   22.8862 H       1  UNL1        0.0000
   7611 H          42.4429    1.9941   23.3436 H       1  UNL1        0.0000
   7612 C          45.3997   10.2440   18.0519 C.2     1  UNL1        0.0000
   7613 C          33.0307    8.3654   21.7062 C.3     1  UNL1        0.0000
   7614 C          40.6684    3.1571   21.8085 C.3     1  UNL1        0.0000
   7615 C          37.6630   15.3005   17.9195 C.3     1  UNL1        0.0000
   7616 C          46.2957    9.6397   19.0471 C.2     1  UNL1        0.0000
   7617 C          32.0987    8.9904   20.7291 C.ar    1  UNL1        0.0000
   7618 C          41.6086    2.5428   20.8613 C.ar    1  UNL1        0.0000
   7619 C          36.7731   15.9473   18.9193 C.ar    1  UNL1        0.0000
   7620 C          46.0470    9.7146   20.4535 C.3     1  UNL1        0.0000
   7621 C          32.3151    8.8705   19.3411 C.ar    1  UNL1        0.0000
   7622 C          42.7380    1.7825   21.3144 C.ar    1  UNL1        0.0000
   7623 C          35.6784   16.7202   18.4744 C.ar    1  UNL1        0.0000
   7624 C          37.0276   15.7765   20.2742 C.ar    1  UNL1        0.0000
   7625 C          41.3609    2.6749   19.4774 C.ar    1  UNL1        0.0000
   7626 C          47.4294    8.9407   18.5714 C.3     1  UNL1        0.0000
   7627 C          30.9986    9.6829   21.2278 C.ar    1  UNL1        0.0000
   7628 C          45.6115    7.1583   13.3650 C.ar    1  UNL1        0.0000
   7629 C          39.1418   18.9499   13.3900 C.ar    1  UNL1        0.0000
   7630 C          48.0959   12.9214   13.2390 C.2     1  UNL1        0.0000
   7631 C          34.7376   14.4638   13.2196 C.ar    1  UNL1        0.0000
   7632 C          40.3458   10.9868   18.9248 C.3     1  UNL1        0.0000
   7633 C          35.5897    3.8924   20.8429 C.3     1  UNL1        0.0000
   7634 C          45.4756    8.6131   13.3418 C.3     1  UNL1        0.0000
   7635 C          39.0490   17.5163   13.3525 C.3     1  UNL1        0.0000
   7636 C          46.7981   12.3046   13.2858 C.2     1  UNL1        0.0000
   7637 C          36.1399   14.8782   13.2440 C.3     1  UNL1        0.0000
   7638 C          45.6508    6.4892   14.5947 C.ar    1  UNL1        0.0000
   7639 C          34.5040   12.5895   25.2476 C.ar    1  UNL1        0.0000
   7640 C          48.7512   13.1962   14.4729 C.3     1  UNL1        0.0000
   7641 C          29.4698    7.1680   25.0861 C.ar    1  UNL1        0.0000
   7642 C          44.1556    6.1237   25.1006 C.3     1  UNL1        0.0000
   7643 C          34.0404   14.2334   14.4321 C.ar    1  UNL1        0.0000
   7644 C          40.9933   -0.6482   25.2497 C.ar    1  UNL1        0.0000
   7645 C          39.1555   19.7011   14.6193 C.ar    1  UNL1        0.0000
   7646 N          39.2106   19.1022   15.8574 N.pl3   1  UNL1        0.0000
   7647 N          43.5765    5.9408   23.8616 N.3     1  UNL1        0.0000
   7648 N          44.9661   10.3609   20.9848 N.3     1  UNL1        0.0000
   7649 N          43.0690    1.6242   22.6318 N.pl3   1  UNL1        0.0000
   7650 O          44.2234   10.6491   18.4177 O.2     1  UNL1        0.0000
   7651 O          33.7996    7.4146   21.3079 O.3     1  UNL1        0.0000
   7652 O          41.0498    3.2816   23.0296 O.3     1  UNL1        0.0000
   7653 O          37.5971   15.7302   16.7199 O.3     1  UNL1        0.0000
   7654 O          38.4334   14.3433   18.3060 O.3     1  UNL1        0.0000
   7655 O          39.4980    3.5256   21.4030 O.3     1  UNL1        0.0000
   7656 O          45.8116   10.3248   16.8402 O.2     1  UNL1        0.0000
   7657 O          32.9886    8.8017   22.9059 O.3     1  UNL1        0.0000
   7658 O          43.1391   10.0699   15.8412 O.3     1  UNL1        0.0000
   7659 O          35.4929    7.9285   23.4062 O.3     1  UNL1        0.0000
   7660 O          44.0779   12.3572   16.2911 O.3     1  UNL1        0.0000
   7661 O          33.7407    6.2038   23.8989 O.3     1  UNL1        0.0000
   7662 O          38.3472    2.9959   23.9936 O.3     1  UNL1        0.0000
   7663 O          40.1156   14.8913   16.2217 O.3     1  UNL1        0.0000
   7664 O          39.3011    5.2574   23.5295 O.3     1  UNL1        0.0000
   7665 O          38.4094   13.1342   15.7043 O.3     1  UNL1        0.0000
   7666 O          40.7184    2.1416   25.2957 O.3     1  UNL1        0.0000
   7667 O          38.9659   16.8149   14.4477 O.3     1  UNL1        0.0000
   7668 O          41.5206    4.9298   25.2906 O.2     1  UNL1        0.0000
   7669 O          36.7300   14.9792   14.3876 O.3     1  UNL1        0.0000
   7670 O          46.2587   12.0044   14.4338 O.2     1  UNL1        0.0000
   7671 O          32.1044    8.0440   25.2216 O.3     1  UNL1        0.0000
   7672 O          45.4632    9.2501   14.4632 O.3     1  UNL1        0.0000
   7673 O          34.3726    9.8263   25.3029 O.3     1  UNL1        0.0000
   7674 O          41.3309   12.4614   16.3422 O.3     1  UNL1        0.0000
   7675 O          36.6289    5.4575   23.3232 O.3     1  UNL1        0.0000
   7676 O          43.7850   11.2362   13.4094 O.3     1  UNL1        0.0000
   7677 O          39.2173   14.3383   13.2427 O.3     1  UNL1        0.0000
   7678 H          40.4160    7.1495   21.5836 H       1  UNL1        0.0000
   7679 H          36.5168    1.4617   20.1310 H       1  UNL1        0.0000
   7680 H          41.2515   16.2314   18.8276 H      59  UNL59       0.0000
   7681 H          41.5361    8.9071   20.1780 H       1  UNL1        0.0000
   7682 H          36.6202    9.0974   20.9802 H       1  UNL1        0.0000
   7683 H          33.0657    4.0214   19.8967 H       1  UNL1        0.0000
   7684 H          37.9666    7.2513   21.9461 H       1  UNL1        0.0000
   7685 H          37.7469   10.8644   19.6015 H       1  UNL1        0.0000
   7686 H          42.3338   14.0354   18.4360 H      59  UNL59       0.0000
   7687 H          28.7134   14.2281   18.9724 H       1  UNL1        0.0000
   7688 C          39.7053    9.9870   19.8147 C.ar    1  UNL1        0.0000
   7689 C          38.4563    8.0226   21.3529 C.ar    1  UNL1        0.0000
   7690 C          42.9017   14.8402   18.9034 C.2    59  UNL59       0.0000
   7691 C          34.8629    2.8450   20.0805 C.ar    1  UNL1        0.0000
   7692 C          38.3176   10.0503   20.0433 C.ar    1  UNL1        0.0000
   7693 C          39.8400    7.9639   21.1463 C.ar    1  UNL1        0.0000
   7694 C          42.2878   16.0790   19.1256 C.2    59  UNL59       0.0000
   7695 C          35.4806    1.6053   19.8314 C.ar    1  UNL1        0.0000
   7696 C          44.2395   14.6315   19.2587 C.3    59  UNL59       0.0000
   7697 C          33.5251    3.0553   19.6978 C.ar    1  UNL1        0.0000
   7698 C          40.4659    8.9430   20.3718 C.ar    1  UNL1        0.0000
   7699 C          37.6949    9.0639   20.8077 C.ar    1  UNL1        0.0000
   7700 O          41.5862   10.8442   18.6234 O.3     1  UNL1        0.0000
   7701 O          34.9658    4.9704   21.1562 O.3     1  UNL1        0.0000
   7702 O          36.7871    3.6469   21.2320 O.3     1  UNL1        0.0000
   7703 O          39.6231   11.9358   18.4570 O.3     1  UNL1        0.0000
   7704 N          42.8234   16.3523   38.4099 N.pl3  59  UNL59       0.0000
   7705 N          43.2982   15.5729   40.3950 N.pl3  59  UNL59       0.0000
   7706 C          43.5022   15.1572   38.2259 C.2    59  UNL59       0.0000
   7707 C          43.8029   14.6722   39.4726 C.2    59  UNL59       0.0000
   7708 C          44.5993   16.5224   42.2838 C.3    59  UNL59       0.0000
   7709 C          42.3308   17.2369   37.3464 C.3    59  UNL59       0.0000
   7710 C          42.7038   16.5813   39.7298 C.3    59  UNL59       0.0000
   7711 C          43.5129   15.5366   41.8601 C.3    59  UNL59       0.0000
   7712 H          43.7343   14.7612   37.2451 H      59  UNL59       0.0000
   7713 H          44.3210   13.7709   39.7768 H      59  UNL59       0.0000
   7714 H          45.5541   16.2931   41.7936 H      59  UNL59       0.0000
   7715 H          43.1696   17.5209   36.7020 H      59  UNL59       0.0000
   7716 H          44.3215   17.5564   42.0433 H      59  UNL59       0.0000
   7717 H          41.5714   16.6981   36.7680 H      59  UNL59       0.0000
   7718 H          44.7442   16.4541   43.3704 H      59  UNL59       0.0000
   7719 H          43.7991   14.5055   42.1075 H      59  UNL59       0.0000
   7720 H          41.8885   18.1259   37.8067 H      59  UNL59       0.0000
   7721 H          42.2040   17.4303   40.1794 H      59  UNL59       0.0000
   7722 H          42.5450   15.7419   42.3335 H      59  UNL59       0.0000
   7723 TI         29.3566    1.0376   37.6478 Ti      1  UNL1        0.0000
   7724 TI         40.1870    3.9188   28.2830 Ti      1  UNL1        0.0000
   7725 TI         33.4532   -2.8986   35.8278 Ti      1  UNL1        0.0000
   7726 TI         34.9644    6.2635   30.0548 Ti      1  UNL1        0.0000
   7727 TI         33.9659    7.9418   28.1504 Ti      1  UNL1        0.0000
   7728 TI         35.3414   -3.1529   37.7812 Ti      1  UNL1        0.0000
   7729 TI         30.3058   -0.6983   35.7563 Ti      1  UNL1        0.0000
   7730 TI         38.1992    4.2214   30.1305 Ti      1  UNL1        0.0000
   7731 H          29.8584    4.9347   37.4284 H       1  UNL1        0.0000
   7732 H          40.9958    0.0128   28.6037 H       1  UNL1        0.0000
   7733 H          25.3967    0.2810   37.2654 H       1  UNL1        0.0000
   7734 H          43.5692    5.9231   28.4836 H       1  UNL1        0.0000
   7735 H          36.3170   -7.1875   37.3953 H       1  UNL1        0.0000
   7736 H          29.9073    7.3519   28.4725 H       1  UNL1        0.0000
   7737 H          34.4603    6.3050   26.2773 H       1  UNL1        0.0000
   7738 H          38.3115    3.6761   26.5831 H       1  UNL1        0.0000
   7739 H          35.8514   -3.8200   32.2701 H       1  UNL1        0.0000
   7740 H          33.2410    8.1006   33.6738 H       1  UNL1        0.0000
   7741 H          26.2331    2.6903   35.4004 H       1  UNL1        0.0000
   7742 H          42.9418    1.8345   30.5890 H       1  UNL1        0.0000
   7743 H          28.5342    1.2429   32.0666 H       1  UNL1        0.0000
   7744 H          30.8658    9.7697   30.5036 H       1  UNL1        0.0000
   7745 H          34.3581   11.0447   29.0059 H       1  UNL1        0.0000
   7746 H          40.8380   -2.0061   29.8062 H       1  UNL1        0.0000
   7747 H          37.0571    5.9437   28.7162 H       1  UNL1        0.0000
   7748 H          32.3725   -1.0502   37.1214 H       1  UNL1        0.0000
   7749 H          39.5762   -1.2181   36.1709 H       1  UNL1        0.0000
   7750 H          38.0951   -1.6871   36.9182 H       1  UNL1        0.0000
   7751 H          40.1503    3.2156   35.0720 H       1  UNL1        0.0000
   7752 H          39.5806    3.5741   33.4534 H       1  UNL1        0.0000
   7753 H          39.0874   -6.1729   35.9808 H       1  UNL1        0.0000
   7754 H          37.8082   -5.0723   36.4382 H       1  UNL1        0.0000
   7755 C          40.7651    3.1776   31.1465 C.2     1  UNL1        0.0000
   7756 C          28.3960    1.2990   34.8008 C.3     1  UNL1        0.0000
   7757 C          36.0337   -3.9093   34.9031 C.3     1  UNL1        0.0000
   7758 C          33.0283    8.2341   31.0142 C.3     1  UNL1        0.0000
   7759 C          41.6611    2.5733   32.1417 C.2     1  UNL1        0.0000
   7760 C          27.4641    1.9240   33.8237 C.ar    1  UNL1        0.0000
   7761 C          36.9739   -4.5236   33.9559 C.ar    1  UNL1        0.0000
   7762 C          32.1385    8.8809   32.0139 C.ar    1  UNL1        0.0000
   7763 C          41.4123    2.6482   33.5481 C.3     1  UNL1        0.0000
   7764 C          27.6805    1.8040   32.4357 C.ar    1  UNL1        0.0000
   7765 C          38.1034   -5.2839   34.4090 C.ar    1  UNL1        0.0000
   7766 C          31.0438    9.6538   31.5690 C.ar    1  UNL1        0.0000
   7767 C          32.3930    8.7101   33.3688 C.ar    1  UNL1        0.0000
   7768 C          36.7262   -4.3915   32.5720 C.ar    1  UNL1        0.0000
   7769 C          42.7948    1.8743   31.6660 C.3     1  UNL1        0.0000
   7770 C          26.3639    2.6164   34.3224 C.ar    1  UNL1        0.0000
   7771 C          40.9768    0.0918   26.4596 C.ar    1  UNL1        0.0000
   7772 C          34.5071   11.8834   26.4846 C.ar    1  UNL1        0.0000
   7773 C          43.4613    5.8549   26.3336 C.2     1  UNL1        0.0000
   7774 C          30.1029    7.3974   26.3142 C.ar    1  UNL1        0.0000
   7775 C          35.7111    3.9204   32.0194 C.3     1  UNL1        0.0000
   7776 C          30.9551   -3.1740   33.9375 C.3     1  UNL1        0.0000
   7777 C          40.8410    1.5467   26.4364 C.3     1  UNL1        0.0000
   7778 C          34.4144   10.4499   26.4471 C.3     1  UNL1        0.0000
   7779 C          42.1634    5.2381   26.3804 C.2     1  UNL1        0.0000
   7780 C          31.5053    7.8117   26.3387 C.3     1  UNL1        0.0000
   7781 C          41.0162   -0.5773   27.6893 C.ar    1  UNL1        0.0000
   7782 C          29.8694    5.5231   38.3422 C.ar    1  UNL1        0.0000
   7783 C          44.1166    6.1298   27.5675 C.3     1  UNL1        0.0000
   7784 C          24.8352    0.1016   38.1807 C.ar    1  UNL1        0.0000
   7785 C          39.5209   -0.9428   38.1952 C.3     1  UNL1        0.0000
   7786 C          29.4058    7.1670   27.5267 C.ar    1  UNL1        0.0000
   7787 C          36.3587   -7.7146   38.3443 C.ar    1  UNL1        0.0000
   7788 C          34.5209   12.6346   27.7139 C.ar    1  UNL1        0.0000
   7789 N          34.5759   12.0358   28.9520 N.pl3   1  UNL1        0.0000
   7790 N          38.9419   -1.1256   36.9562 N.3     1  UNL1        0.0000
   7791 N          40.3314    3.2944   34.0794 N.3     1  UNL1        0.0000
   7792 N          38.4344   -5.4422   35.7264 N.pl3   1  UNL1        0.0000
   7793 O          39.5887    3.5827   31.5123 O.2     1  UNL1        0.0000
   7794 O          29.1650    0.3481   34.4025 O.3     1  UNL1        0.0000
   7795 O          36.4152   -3.7848   36.1242 O.3     1  UNL1        0.0000
   7796 O          32.9624    8.6637   29.8146 O.3     1  UNL1        0.0000
   7797 O          33.7988    7.2768   31.4006 O.3     1  UNL1        0.0000
   7798 O          34.8633   -3.5409   34.4976 O.3     1  UNL1        0.0000
   7799 O          41.1769    3.2583   29.9348 O.2     1  UNL1        0.0000
   7800 O          28.3540    1.7352   36.0005 O.3     1  UNL1        0.0000
   7801 O          38.5044    3.0035   28.9358 O.3     1  UNL1        0.0000
   7802 O          30.8582    0.8621   36.5008 O.3     1  UNL1        0.0000
   7803 O          39.4432    5.2908   29.3857 O.3     1  UNL1        0.0000
   7804 O          29.1060   -0.8626   36.9935 O.3     1  UNL1        0.0000
   7805 O          33.7125   -4.0706   37.0882 O.3     1  UNL1        0.0000
   7806 O          35.4810    7.8249   29.3163 O.3     1  UNL1        0.0000
   7807 O          34.6665   -1.8091   36.6241 O.3     1  UNL1        0.0000
   7808 O          33.7747    6.0677   28.7989 O.3     1  UNL1        0.0000
   7809 O          36.0838   -4.9248   38.3903 O.3     1  UNL1        0.0000
   7810 O          34.3312    9.7485   27.5423 O.3     1  UNL1        0.0000
   7811 O          36.8859   -2.1366   38.3852 O.2     1  UNL1        0.0000
   7812 O          32.0953    7.9127   27.4822 O.3     1  UNL1        0.0000
   7813 O          41.6241    4.9379   27.5284 O.2     1  UNL1        0.0000
   7814 O          27.4698    0.9776   38.3162 O.3     1  UNL1        0.0000
   7815 O          40.8285    2.1836   27.5578 O.3     1  UNL1        0.0000
   7816 O          29.7380    2.7599   38.3975 O.3     1  UNL1        0.0000
   7817 O          36.6962    5.3949   29.4368 O.3     1  UNL1        0.0000
   7818 O          31.9943   -1.6089   36.4179 O.3     1  UNL1        0.0000
   7819 O          39.1503    4.1698   26.5040 O.3     1  UNL1        0.0000
   7820 O          34.5827    7.2718   26.3373 O.3     1  UNL1        0.0000
   7821 H          35.7813    0.0831   34.6782 H       1  UNL1        0.0000
   7822 H          31.8821   -5.6047   33.2256 H       1  UNL1        0.0000
   7823 H          36.6169    9.1649   31.9222 H      59  UNL59       0.0000
   7824 H          36.9014    1.8406   33.2726 H       1  UNL1        0.0000
   7825 H          31.9855    2.0310   34.0748 H       1  UNL1        0.0000
   7826 H          28.4310   -3.0451   32.9913 H       1  UNL1        0.0000
   7827 H          33.3319    0.1848   35.0407 H       1  UNL1        0.0000
   7828 H          33.1123    3.7980   32.6961 H       1  UNL1        0.0000
   7829 H          37.6991    6.9689   31.5306 H      59  UNL59       0.0000
   7830 H          24.0788    7.1616   32.0670 H       1  UNL1        0.0000
   7831 C          35.0706    2.9205   32.9093 C.ar    1  UNL1        0.0000
   7832 C          33.8216    0.9562   34.4475 C.ar    1  UNL1        0.0000
   7833 C          38.2671    7.7738   31.9980 C.2    59  UNL59       0.0000
   7834 C          30.2282   -4.2215   33.1751 C.ar    1  UNL1        0.0000
   7835 C          33.6830    2.9839   33.1379 C.ar    1  UNL1        0.0000
   7836 C          35.2053    0.8975   34.2409 C.ar    1  UNL1        0.0000
   7837 C          37.6531    9.0125   32.2202 C.2    59  UNL59       0.0000
   7838 C          30.8460   -5.4612   32.9261 C.ar    1  UNL1        0.0000
   7839 C          39.6049    7.5651   32.3533 C.3    59  UNL59       0.0000
   7840 C          28.8905   -4.0111   32.7924 C.ar    1  UNL1        0.0000
   7841 C          35.8313    1.8765   33.4664 C.ar    1  UNL1        0.0000
   7842 C          33.0603    1.9974   33.9023 C.ar    1  UNL1        0.0000
   7843 O          36.9515    3.7778   31.7180 O.3     1  UNL1        0.0000
   7844 O          30.3312   -2.0961   34.2508 O.3     1  UNL1        0.0000
   7845 O          32.1525   -3.4195   34.3266 O.3     1  UNL1        0.0000
   7846 O          34.9884    4.8694   31.5516 O.3     1  UNL1        0.0000
   7847 N          38.1888    9.2859   51.5046 N.pl3  59  UNL59       0.0000
   7848 N          38.6635    8.5064   53.4896 N.pl3  59  UNL59       0.0000
   7849 C          38.8676    8.0908   51.3205 C.2    59  UNL59       0.0000
   7850 C          39.1682    7.6057   52.5672 C.2    59  UNL59       0.0000
   7851 C          39.9647    9.4560   55.3784 C.3    59  UNL59       0.0000
   7852 C          37.6962   10.1705   50.4410 C.3    59  UNL59       0.0000
   7853 C          38.0691    9.5148   52.8244 C.3    59  UNL59       0.0000
   7854 C          38.8782    8.4701   54.9547 C.3    59  UNL59       0.0000
   7855 H          39.0997    7.6948   50.3397 H      59  UNL59       0.0000
   7856 H          39.6864    6.7044   52.8714 H      59  UNL59       0.0000
   7857 H          40.9194    9.2267   54.8882 H      59  UNL59       0.0000
   7858 H          38.5350   10.4545   49.7966 H      59  UNL59       0.0000
   7859 H          39.6868   10.4900   55.1379 H      59  UNL59       0.0000
   7860 H          36.9367    9.6317   49.8626 H      59  UNL59       0.0000
   7861 H          40.1096    9.3876   56.4650 H      59  UNL59       0.0000
   7862 H          39.1645    7.4391   55.2021 H      59  UNL59       0.0000
   7863 H          37.2539   11.0595   50.9013 H      59  UNL59       0.0000
   7864 H          37.5694   10.3639   53.2740 H      59  UNL59       0.0000
   7865 H          37.9104    8.6755   55.4281 H      59  UNL59       0.0000
   7866 TI         24.7219   -6.0288   50.7424 Ti      1  UNL1        0.0000
   7867 TI         35.5524   -3.1476   41.3776 Ti      1  UNL1        0.0000
   7868 TI         28.8186   -9.9650   48.9224 Ti      1  UNL1        0.0000
   7869 TI         30.3298   -0.8029   43.1494 Ti      1  UNL1        0.0000
   7870 TI         29.3312    0.8754   41.2450 Ti      1  UNL1        0.0000
   7871 TI         30.7068  -10.2194   50.8758 Ti      1  UNL1        0.0000
   7872 TI         25.6711   -7.7647   48.8509 Ti      1  UNL1        0.0000
   7873 TI         33.5646   -2.8451   43.2251 Ti      1  UNL1        0.0000
   7874 H          25.2238   -2.1317   50.5230 H      59  UNL59       0.0000
   7875 H          36.3612   -7.0537   41.6983 H       1  UNL1        0.0000
   7876 H          20.7620   -6.7855   50.3600 H      59  UNL59       0.0000
   7877 H          38.9345   -1.1433   41.5783 H       1  UNL1        0.0000
   7878 H          31.6824  -14.2539   50.4899 H      59  UNL59       0.0000
   7879 H          25.2727    0.2855   41.5671 H       1  UNL1        0.0000
   7880 H          29.8257   -0.7614   39.3719 H       1  UNL1        0.0000
   7881 H          33.6769   -3.3903   39.6777 H       1  UNL1        0.0000
   7882 H          31.2167  -10.8865   45.3647 H       1  UNL1        0.0000
   7883 H          28.6063    1.0341   46.7684 H       1  UNL1        0.0000
   7884 H          21.5985   -4.3761   48.4950 H       1  UNL1        0.0000
   7885 H          38.3071   -5.2319   43.6836 H       1  UNL1        0.0000
   7886 H          23.8996   -5.8235   45.1612 H       1  UNL1        0.0000
   7887 H          26.2311    2.7033   43.5983 H       1  UNL1        0.0000
   7888 H          29.7235    3.9782   42.1005 H       1  UNL1        0.0000
   7889 H          36.2033   -9.0725   42.9008 H       1  UNL1        0.0000
   7890 H          32.4224   -1.1228   41.8108 H       1  UNL1        0.0000
   7891 H          27.7379   -8.1166   50.2161 H       1  UNL1        0.0000
   7892 H          34.9415   -8.2845   49.2655 H      59  UNL59       0.0000
   7893 H          33.4604   -8.7536   50.0128 H      59  UNL59       0.0000
   7894 H          35.5157   -3.8509   48.1666 H       1  UNL1        0.0000
   7895 H          34.9459   -3.4923   46.5480 H       1  UNL1        0.0000
   7896 H          34.4527  -13.2394   49.0754 H       1  UNL1        0.0000
   7897 H          33.1736  -12.1388   49.5328 H       1  UNL1        0.0000
   7898 C          36.1304   -3.8889   44.2411 C.2     1  UNL1        0.0000
   7899 C          23.7614   -5.7674   47.8954 C.3     1  UNL1        0.0000
   7900 C          31.3991  -10.9757   47.9977 C.3     1  UNL1        0.0000
   7901 C          28.3937    1.1676   44.1088 C.3     1  UNL1        0.0000
   7902 C          37.0264   -4.4932   45.2363 C.2     1  UNL1        0.0000
   7903 C          22.8295   -5.1424   46.9183 C.ar    1  UNL1        0.0000
   7904 C          32.3393  -11.5901   47.0505 C.ar    1  UNL1        0.0000
   7905 C          27.5038    1.8144   45.1086 C.ar    1  UNL1        0.0000
   7906 C          36.7777   -4.4183   46.6427 C.3     1  UNL1        0.0000
   7907 C          23.0459   -5.2624   45.5303 C.ar    1  UNL1        0.0000
   7908 C          33.4687  -12.3504   47.5036 C.ar    1  UNL1        0.0000
   7909 C          26.4091    2.5874   44.6636 C.ar    1  UNL1        0.0000
   7910 C          27.7583    1.6437   46.4634 C.ar    1  UNL1        0.0000
   7911 C          32.0916  -11.4579   45.6666 C.ar    1  UNL1        0.0000
   7912 C          38.1601   -5.1922   44.7606 C.3     1  UNL1        0.0000
   7913 C          21.7293   -4.4500   47.4170 C.ar    1  UNL1        0.0000
   7914 C          36.3422   -6.9746   39.5542 C.ar    1  UNL1        0.0000
   7915 C          29.8725    4.8170   39.5792 C.ar    1  UNL1        0.0000
   7916 C          38.8266   -1.2115   39.4282 C.2     1  UNL1        0.0000
   7917 C          25.4683    0.3309   39.4088 C.ar    1  UNL1        0.0000
   7918 C          31.0765   -3.1461   45.1140 C.3     1  UNL1        0.0000
   7919 C          26.3204  -10.2404   47.0321 C.3     1  UNL1        0.0000
   7920 C          36.2063   -5.5197   39.5310 C.3     1  UNL1        0.0000
   7921 C          29.7797    3.3835   39.5417 C.3     1  UNL1        0.0000
   7922 C          37.5288   -1.8283   39.4751 C.2     1  UNL1        0.0000
   7923 C          26.8706    0.7453   39.4333 C.3     1  UNL1        0.0000
   7924 C          36.3815   -7.6437   40.7839 C.ar    1  UNL1        0.0000
   7925 C          25.2347   -1.5433   51.4369 C.2    59  UNL59       0.0000
   7926 C          39.4819   -0.9367   40.6621 C.3     1  UNL1        0.0000
   7927 C          20.2005   -6.9648   51.2753 C.2    59  UNL59       0.0000
   7928 C          34.8863   -8.0092   51.2898 C.3    59  UNL59       0.0000
   7929 C          24.7711    0.1005   40.6213 C.ar    1  UNL1        0.0000
   7930 C          31.7240  -14.7811   51.4389 C.2    59  UNL59       0.0000
   7931 C          29.8862    5.5682   40.8085 C.ar    1  UNL1        0.0000
   7932 N          29.9413    4.9693   42.0466 N.pl3   1  UNL1        0.0000
   7933 N          34.3072   -8.1920   50.0508 N.3    59  UNL59       0.0000
   7934 N          35.6968   -3.7720   47.1740 N.3     1  UNL1        0.0000
   7935 N          33.7998  -12.5086   48.8210 N.pl3   1  UNL1        0.0000
   7936 O          34.9541   -3.4838   44.6069 O.2     1  UNL1        0.0000
   7937 O          24.5304   -6.7183   47.4971 O.3     1  UNL1        0.0000
   7938 O          31.7806  -10.8513   49.2188 O.3     1  UNL1        0.0000
   7939 O          28.3278    1.5973   42.9092 O.3     1  UNL1        0.0000
   7940 O          29.1641    0.2104   44.4952 O.3     1  UNL1        0.0000
   7941 O          30.2287  -10.6073   47.5922 O.3     1  UNL1        0.0000
   7942 O          36.5423   -3.8081   43.0294 O.2     1  UNL1        0.0000
   7943 O          23.7193   -5.3312   49.0951 O.3     1  UNL1        0.0000
   7944 O          33.8698   -4.0630   42.0304 O.3     1  UNL1        0.0000
   7945 O          26.2236   -6.2044   49.5955 O.3     1  UNL1        0.0000
   7946 O          34.8086   -1.7757   42.4804 O.3     1  UNL1        0.0000
   7947 O          24.4714   -7.9290   50.0881 O.3     1  UNL1        0.0000
   7948 O          29.0779  -11.1370   50.1828 O.3     1  UNL1        0.0000
   7949 O          30.8463    0.7584   42.4109 O.3     1  UNL1        0.0000
   7950 O          30.0318   -8.8755   49.7187 O.3     1  UNL1        0.0000
   7951 O          29.1401   -0.9987   41.8935 O.3     1  UNL1        0.0000
   7952 O          31.4491  -11.9912   51.4849 O.3     1  UNL1        0.0000
   7953 O          29.6966    2.6820   40.6369 O.3     1  UNL1        0.0000
   7954 O          32.2513   -9.2031   51.4798 O.3     1  UNL1        0.0000
   7955 O          27.4607    0.8463   40.5768 O.3     1  UNL1        0.0000
   7956 O          36.9895   -2.1285   40.6230 O.2     1  UNL1        0.0000
   7957 O          22.8351   -6.0889   51.4109 O.3     1  UNL1        0.0000
   7958 O          36.1939   -4.8828   40.6524 O.3     1  UNL1        0.0000
   7959 O          25.1033   -4.3065   51.4921 O.3     1  UNL1        0.0000
   7960 O          32.0616   -1.6715   42.5314 O.3     1  UNL1        0.0000
   7961 O          27.3596   -8.6753   49.5125 O.3     1  UNL1        0.0000
   7962 O          34.5157   -2.8966   39.5986 O.3     1  UNL1        0.0000
   7963 O          29.9480    0.2054   39.4319 O.3     1  UNL1        0.0000
   7964 H          31.1467   -6.9834   47.7728 H       1  UNL1        0.0000
   7965 H          27.2475  -12.6712   46.3202 H       1  UNL1        0.0000
   7966 H          31.9822    2.0985   45.0168 H      59  UNL59       0.0000
   7967 H          32.2668   -5.2258   46.3672 H       1  UNL1        0.0000
   7968 H          27.3509   -5.0354   47.1694 H       1  UNL1        0.0000
   7969 H          23.7964  -10.1115   46.0859 H       1  UNL1        0.0000
   7970 H          28.6973   -6.8816   48.1353 H       1  UNL1        0.0000
   7971 H          28.4776   -3.2685   45.7908 H       1  UNL1        0.0000
   7972 H          33.0645   -0.0975   44.6253 H      59  UNL59       0.0000
   7973 H          19.4441    0.0952   45.1616 H       1  UNL1        0.0000
   7974 C          30.4360   -4.1459   46.0040 C.ar    1  UNL1        0.0000
   7975 C          29.1870   -6.1103   47.5421 C.ar    1  UNL1        0.0000
   7976 C          33.6324    0.7074   45.0927 C.2    59  UNL59       0.0000
   7977 C          25.5936  -11.2879   46.2697 C.ar    1  UNL1        0.0000
   7978 C          29.0483   -4.0826   46.2325 C.ar    1  UNL1        0.0000
   7979 C          30.5707   -6.1690   47.3355 C.ar    1  UNL1        0.0000
   7980 C          33.0185    1.9461   45.3148 C.2    59  UNL59       0.0000
   7981 C          26.2113  -12.5276   46.0207 C.ar    1  UNL1        0.0000
   7982 C          34.9702    0.4986   45.4480 C.3    59  UNL59       0.0000
   7983 C          24.2558  -11.0776   45.8870 C.ar    1  UNL1        0.0000
   7984 C          31.1966   -5.1899   46.5610 C.ar    1  UNL1        0.0000
   7985 C          28.4257   -5.0690   46.9969 C.ar    1  UNL1        0.0000
   7986 O          32.3169   -3.2886   44.8126 O.3     1  UNL1        0.0000
   7987 O          25.6965   -9.1625   47.3454 O.3     1  UNL1        0.0000
   7988 O          27.5178  -10.4859   47.4212 O.3     1  UNL1        0.0000
   7989 O          30.3538   -2.1970   44.6462 O.3     1  UNL1        0.0000
   7990 N          33.5542    2.2194   64.5992 N.pl3  59  UNL59       0.0000
   7991 N          34.0289    1.4400   66.5842 N.pl3  59  UNL59       0.0000
   7992 C          34.2329    1.0243   64.4152 C.2    59  UNL59       0.0000
   7993 C          34.5336    0.5393   65.6618 C.2    59  UNL59       0.0000
   7994 C          35.3300    2.3895   68.4730 C.3    59  UNL59       0.0000
   7995 C          33.0615    3.1041   63.5356 C.3    59  UNL59       0.0000
   7996 C          33.4345    2.4484   65.9190 C.3    59  UNL59       0.0000
   7997 C          34.2436    1.4037   68.0493 C.3    59  UNL59       0.0000
   7998 H          34.4650    0.6283   63.4343 H      59  UNL59       0.0000
   7999 H          35.0517   -0.3620   65.9660 H      59  UNL59       0.0000
   8000 H          36.2848    2.1602   67.9828 H      59  UNL59       0.0000
   8001 H          33.9003    3.3880   62.8912 H      59  UNL59       0.0000
   8002 H          35.0522    3.4235   68.2325 H      59  UNL59       0.0000
   8003 H          32.3021    2.5653   62.9572 H      59  UNL59       0.0000
   8004 H          35.4750    2.3212   69.5596 H      59  UNL59       0.0000
   8005 H          34.5298    0.3726   68.2967 H      59  UNL59       0.0000
   8006 H          32.6192    3.9930   63.9959 H      59  UNL59       0.0000
   8007 H          32.9347    3.2974   66.3686 H      59  UNL59       0.0000
   8008 H          33.2757    1.6090   68.5227 H      59  UNL59       0.0000
   8009 TI         32.1088   29.7830   11.4021 Ti      1  UNL1        0.0000
   8010 TI         42.9393   32.6642    2.0373 Ti      1  UNL1        0.0000
   8011 TI         36.2055   25.8468    9.5821 Ti      1  UNL1        0.0000
   8012 TI         37.7167   35.0089    3.8091 Ti      1  UNL1        0.0000
   8013 TI         36.7181   36.6872    1.9047 Ti      1  UNL1        0.0000
   8014 TI         38.0937   25.5924   11.5355 Ti      1  UNL1        0.0000
   8015 TI         33.0580   28.0471    9.5106 Ti      1  UNL1        0.0000
   8016 TI         40.9515   32.9668    3.8847 Ti      1  UNL1        0.0000
   8017 H          32.6107   33.6801   11.1826 H       1  UNL1        0.0000
   8018 H          43.7481   28.7581    2.3579 H       1  UNL1        0.0000
   8019 H          28.1489   29.0264   11.0196 H       1  UNL1        0.0000
   8020 H          46.3214   34.6685    2.2379 H       1  UNL1        0.0000
   8021 H          39.0693   21.5579   11.1495 H       1  UNL1        0.0000
   8022 H          32.6596   36.0973    2.2267 H       1  UNL1        0.0000
   8023 H          37.2126   35.0504    0.0316 H       1  UNL1        0.0000
   8024 H          41.0638   32.4215    0.3373 H       1  UNL1        0.0000
   8025 H          38.6036   24.9253    6.0244 H       1  UNL1        0.0000
   8026 H          35.9933   36.8459    7.4280 H       1  UNL1        0.0000
   8027 H          28.9854   31.4357    9.1547 H       1  UNL1        0.0000
   8028 H          45.6940   30.5799    4.3433 H       1  UNL1        0.0000
   8029 H          31.2865   29.9883    5.8208 H       1  UNL1        0.0000
   8030 H          33.6180   38.5151    4.2579 H       1  UNL1        0.0000
   8031 H          37.1104   39.7901    2.7601 H       1  UNL1        0.0000
   8032 H          43.5902   26.7393    3.5604 H       1  UNL1        0.0000
   8033 H          39.8093   34.6891    2.4704 H       1  UNL1        0.0000
   8034 H          35.1248   27.6952   10.8757 H       1  UNL1        0.0000
   8035 H          42.3284   27.5273    9.9251 H       1  UNL1        0.0000
   8036 H          40.8473   27.0582   10.6725 H       1  UNL1        0.0000
   8037 H          42.9026   31.9609    8.8262 H       1  UNL1        0.0000
   8038 H          42.3329   32.3195    7.2077 H       1  UNL1        0.0000
   8039 H          41.8396   22.5725    9.7351 H       1  UNL1        0.0000
   8040 H          40.5605   23.6730   10.1925 H       1  UNL1        0.0000
   8041 C          43.5173   31.9230    4.9008 C.2     1  UNL1        0.0000
   8042 C          31.1483   30.0444    8.5550 C.3     1  UNL1        0.0000
   8043 C          38.7860   24.8361    8.6574 C.3     1  UNL1        0.0000
   8044 C          35.7806   36.9794    4.7684 C.3     1  UNL1        0.0000
   8045 C          44.4134   31.3186    5.8960 C.2     1  UNL1        0.0000
   8046 C          30.2164   30.6694    7.5780 C.ar    1  UNL1        0.0000
   8047 C          39.7262   24.2217    7.7102 C.ar    1  UNL1        0.0000
   8048 C          34.8908   37.6262    5.7682 C.ar    1  UNL1        0.0000
   8049 C          44.1646   31.3936    7.3024 C.3     1  UNL1        0.0000
   8050 C          30.4328   30.5494    6.1900 C.ar    1  UNL1        0.0000
   8051 C          40.8557   23.4614    8.1632 C.ar    1  UNL1        0.0000
   8052 C          33.7960   38.3992    5.3233 C.ar    1  UNL1        0.0000
   8053 C          35.1453   37.4555    7.1231 C.ar    1  UNL1        0.0000
   8054 C          39.4785   24.3539    6.3263 C.ar    1  UNL1        0.0000
   8055 C          45.5470   30.6197    5.4203 C.3     1  UNL1        0.0000
   8056 C          29.1162   31.3618    8.0767 C.ar    1  UNL1        0.0000
   8057 C          43.7291   28.8372    0.2138 C.2     1  UNL1        0.0000
   8058 C          37.2594   40.6288    0.2389 C.2     1  UNL1        0.0000
   8059 C          46.2135   34.6003    0.0878 C.2     1  UNL1        0.0000
   8060 C          32.8552   36.1428    0.0685 C.2     1  UNL1        0.0000
   8061 C          38.4634   32.6657    5.7736 C.3     1  UNL1        0.0000
   8062 C          33.7073   25.5714    7.6918 C.3     1  UNL1        0.0000
   8063 C          43.5932   30.2921    0.1906 C.2     1  UNL1        0.0000
   8064 C          37.1666   39.1953    0.2014 C.2     1  UNL1        0.0000
   8065 C          44.9157   33.9835    0.1347 C.2     1  UNL1        0.0000
   8066 C          34.2575   36.5571    0.0929 C.2     1  UNL1        0.0000
   8067 C          43.7685   28.1681    1.4435 C.2     1  UNL1        0.0000
   8068 C          32.6216   34.2685   12.0965 C.ar    1  UNL1        0.0000
   8069 C          46.8688   34.8751    1.3218 C.3     1  UNL1        0.0000
   8070 C          27.5874   28.8470   11.9350 C.ar    1  UNL1        0.0000
   8071 C          42.2732   27.8026   11.9495 C.3     1  UNL1        0.0000
   8072 C          32.1580   35.9123    1.2809 C.2     1  UNL1        0.0000
   8073 C          39.1110   21.0307   12.0986 C.ar    1  UNL1        0.0000
   8074 C          37.2731   41.3800    1.4681 C.2     1  UNL1        0.0000
   8075 N          37.3282   40.7812    2.7063 N.pl3   1  UNL1        0.0000
   8076 N          41.6942   27.6198   10.7105 N.3     1  UNL1        0.0000
   8077 N          43.0837   32.0398    7.8337 N.3     1  UNL1        0.0000
   8078 N          41.1867   23.3032    9.4806 N.pl3   1  UNL1        0.0000
   8079 O          42.3410   32.3281    5.2666 O.2     1  UNL1        0.0000
   8080 O          31.9173   29.0935    8.1568 O.3     1  UNL1        0.0000
   8081 O          39.1675   24.9606    9.8785 O.3     1  UNL1        0.0000
   8082 O          35.7147   37.4091    3.5688 O.3     1  UNL1        0.0000
   8083 O          36.5510   36.0222    5.1549 O.3     1  UNL1        0.0000
   8084 O          37.6156   25.2045    8.2518 O.3     1  UNL1        0.0000
   8085 O          43.9292   32.0037    3.6890 O.2     1  UNL1        0.0000
   8086 O          31.1063   30.4806    9.7547 O.3     1  UNL1        0.0000
   8087 O          41.2567   31.7488    2.6900 O.3     1  UNL1        0.0000
   8088 O          33.6105   29.6075   10.2551 O.3     1  UNL1        0.0000
   8089 O          42.1955   34.0361    3.1400 O.3     1  UNL1        0.0000
   8090 O          31.8583   27.8828   10.7478 O.3     1  UNL1        0.0000
   8091 O          36.4648   24.6748   10.8425 O.3     1  UNL1        0.0000
   8092 O          38.2332   36.5702    3.0706 O.3     1  UNL1        0.0000
   8093 O          37.4188   26.9363   10.3783 O.3     1  UNL1        0.0000
   8094 O          36.5270   34.8131    2.5531 O.3     1  UNL1        0.0000
   8095 O          38.8360   23.8206   12.1446 O.3     1  UNL1        0.0000
   8096 O          37.0835   38.4939    1.2966 O.2     1  UNL1        0.0000
   8097 O          39.6382   26.6088   12.1394 O.2     1  UNL1        0.0000
   8098 O          34.8476   36.6581    1.2365 O.2     1  UNL1        0.0000
   8099 O          44.3764   33.6833    1.2827 O.2     1  UNL1        0.0000
   8100 O          30.2220   29.7229   12.0705 O.3     1  UNL1        0.0000
   8101 O          43.5808   30.9290    1.3121 O.2     1  UNL1        0.0000
   8102 O          32.4902   31.5053   12.1518 O.3     1  UNL1        0.0000
   8103 O          39.4485   34.1403    3.1911 O.3     1  UNL1        0.0000
   8104 O          34.7465   27.1365   10.1721 O.3     1  UNL1        0.0000
   8105 O          41.9026   32.9152    0.2583 O.3     1  UNL1        0.0000
   8106 O          37.3349   36.0172    0.0916 O.3     1  UNL1        0.0000
   8107 H          38.5336   28.8284    8.4325 H       1  UNL1        0.0000
   8108 H          34.6344   23.1406    6.9798 H       1  UNL1        0.0000
   8109 H          39.3691   37.9103    5.6765 H      59  UNL59       0.0000
   8110 H          39.6537   30.5860    7.0269 H       1  UNL1        0.0000
   8111 H          34.7378   30.7764    7.8291 H       1  UNL1        0.0000
   8112 H          31.1833   25.7003    6.7456 H       1  UNL1        0.0000
   8113 H          36.0842   28.9302    8.7950 H       1  UNL1        0.0000
   8114 H          35.8645   32.5434    6.4504 H       1  UNL1        0.0000
   8115 H          40.4514   35.7143    5.2849 H      59  UNL59       0.0000
   8116 H          26.8310   35.9070    5.8213 H       1  UNL1        0.0000
   8117 C          37.8229   31.6659    6.6636 C.ar    1  UNL1        0.0000
   8118 C          36.5739   29.7015    8.2018 C.ar    1  UNL1        0.0000
   8119 C          41.0193   36.5192    5.7523 C.2    59  UNL59       0.0000
   8120 C          32.9805   24.5239    6.9293 C.ar    1  UNL1        0.0000
   8121 C          36.4353   31.7293    6.8922 C.ar    1  UNL1        0.0000
   8122 C          37.9576   29.6428    7.9951 C.ar    1  UNL1        0.0000
   8123 C          40.4054   37.7579    5.9745 C.2    59  UNL59       0.0000
   8124 C          33.5983   23.2842    6.6803 C.ar    1  UNL1        0.0000
   8125 C          42.3571   36.3104    6.1076 C.3    59  UNL59       0.0000
   8126 C          31.6427   24.7342    6.5467 C.ar    1  UNL1        0.0000
   8127 C          38.5835   30.6219    7.2207 C.ar    1  UNL1        0.0000
   8128 C          35.8126   30.7428    7.6566 C.ar    1  UNL1        0.0000
   8129 O          39.7038   32.5232    5.4723 O.3     1  UNL1        0.0000
   8130 O          33.0834   26.6493    8.0051 O.3     1  UNL1        0.0000
   8131 O          34.9048   25.3259    8.0809 O.3     1  UNL1        0.0000
   8132 O          37.7407   33.6148    5.3059 O.3     1  UNL1        0.0000
   8133 N          40.9411   38.0313   25.2588 N.pl3  59  UNL59       0.0000
   8134 N          41.4158   37.2518   27.2439 N.pl3  59  UNL59       0.0000
   8135 C          41.6198   36.8361   25.0748 C.2    59  UNL59       0.0000
   8136 C          41.9205   36.3511   26.3214 C.2    59  UNL59       0.0000
   8137 C          42.7169   38.2013   29.1327 C.3    59  UNL59       0.0000
   8138 C          40.4484   38.9159   24.1953 C.3    59  UNL59       0.0000
   8139 C          40.8214   38.2602   26.5787 C.3    59  UNL59       0.0000
   8140 C          41.6305   37.2155   28.7089 C.3    59  UNL59       0.0000
   8141 H          41.8519   36.4401   24.0940 H      59  UNL59       0.0000
   8142 H          42.4386   35.4498   26.6257 H      59  UNL59       0.0000
   8143 H          43.6717   37.9720   28.6425 H      59  UNL59       0.0000
   8144 H          41.2872   39.1999   23.5509 H      59  UNL59       0.0000
   8145 H          42.4391   39.2353   28.8921 H      59  UNL59       0.0000
   8146 H          39.6890   38.3771   23.6169 H      59  UNL59       0.0000
   8147 H          42.8619   38.1330   30.2192 H      59  UNL59       0.0000
   8148 H          41.9168   36.1844   28.9564 H      59  UNL59       0.0000
   8149 H          40.0061   39.8049   24.6555 H      59  UNL59       0.0000
   8150 H          40.3217   39.1092   27.0283 H      59  UNL59       0.0000
   8151 H          40.6626   37.4208   29.1824 H      59  UNL59       0.0000
   8152 TI         27.4742   22.7165   24.4967 Ti      1  UNL1        0.0000
   8153 TI         38.3046   25.5978   15.1319 Ti      1  UNL1        0.0000
   8154 TI         31.5709   18.7804   22.6767 Ti      1  UNL1        0.0000
   8155 TI         33.0820   27.9425   16.9037 Ti      1  UNL1        0.0000
   8156 TI         32.0835   29.6208   14.9993 Ti      1  UNL1        0.0000
   8157 TI         33.4591   18.5260   24.6301 Ti      1  UNL1        0.0000
   8158 TI         28.4234   20.9807   22.6052 Ti      1  UNL1        0.0000
   8159 TI         36.3168   25.9003   16.9793 Ti      1  UNL1        0.0000
   8160 H          27.9760   26.6136   24.2772 H       1  UNL1        0.0000
   8161 H          39.1134   21.6917   15.4526 H       1  UNL1        0.0000
   8162 H          23.5143   21.9599   24.1142 H       1  UNL1        0.0000
   8163 H          41.6868   27.6021   15.3325 H       1  UNL1        0.0000
   8164 H          34.4347   14.4915   24.2441 H       1  UNL1        0.0000
   8165 H          28.0250   29.0309   15.3213 H       1  UNL1        0.0000
   8166 H          32.5779   27.9840   13.1262 H       1  UNL1        0.0000
   8167 H          36.4291   25.3551   13.4319 H       1  UNL1        0.0000
   8168 H          33.9690   17.8589   19.1190 H       1  UNL1        0.0000
   8169 H          31.3586   29.7795   20.5226 H       1  UNL1        0.0000
   8170 H          24.3508   24.3693   22.2493 H       1  UNL1        0.0000
   8171 H          41.0594   23.5134   17.4379 H       1  UNL1        0.0000
   8172 H          26.6519   22.9218   18.9155 H       1  UNL1        0.0000
   8173 H          28.9834   31.4487   17.3525 H       1  UNL1        0.0000
   8174 H          32.4757   32.7236   15.8547 H       1  UNL1        0.0000
   8175 H          38.9556   19.6729   16.6550 H       1  UNL1        0.0000
   8176 H          35.1747   27.6226   15.5650 H       1  UNL1        0.0000
   8177 H          30.4902   20.6287   23.9703 H       1  UNL1        0.0000
   8178 H          37.6938   20.4609   23.0197 H       1  UNL1        0.0000
   8179 H          36.2127   19.9918   23.7671 H       1  UNL1        0.0000
   8180 H          38.2679   24.8945   21.9208 H       1  UNL1        0.0000
   8181 H          37.6982   25.2531   20.3023 H       1  UNL1        0.0000
   8182 H          37.2050   15.5060   22.8297 H       1  UNL1        0.0000
   8183 H          35.9258   16.6066   23.2871 H       1  UNL1        0.0000
   8184 C          38.8827   24.8565   17.9954 C.2     1  UNL1        0.0000
   8185 C          26.5136   22.9779   21.6496 C.3     1  UNL1        0.0000
   8186 C          34.1514   17.7696   21.7520 C.3     1  UNL1        0.0000
   8187 C          31.1459   29.9130   17.8630 C.3     1  UNL1        0.0000
   8188 C          39.7787   24.2522   18.9906 C.2     1  UNL1        0.0000
   8189 C          25.5817   23.6030   20.6726 C.ar    1  UNL1        0.0000
   8190 C          35.0916   17.1553   20.8048 C.ar    1  UNL1        0.0000
   8191 C          30.2561   30.5598   18.8628 C.ar    1  UNL1        0.0000
   8192 C          39.5299   24.3271   20.3970 C.3     1  UNL1        0.0000
   8193 C          25.7981   23.4830   19.2846 C.ar    1  UNL1        0.0000
   8194 C          36.2210   16.3950   21.2578 C.ar    1  UNL1        0.0000
   8195 C          29.1614   31.3328   18.4179 C.ar    1  UNL1        0.0000
   8196 C          30.5106   30.3890   20.2177 C.ar    1  UNL1        0.0000
   8197 C          34.8439   17.2874   19.4209 C.ar    1  UNL1        0.0000
   8198 C          40.9124   23.5532   18.5149 C.3     1  UNL1        0.0000
   8199 C          24.4816   24.2954   21.1713 C.ar    1  UNL1        0.0000
   8200 C          39.0945   21.7708   13.3085 C.ar    1  UNL1        0.0000
   8201 C          32.6247   33.5624   13.3335 C.ar    1  UNL1        0.0000
   8202 C          41.5789   27.5339   13.1825 C.2     1  UNL1        0.0000
   8203 C          28.2206   29.0763   13.1631 C.ar    1  UNL1        0.0000
   8204 C          33.8288   25.5993   18.8683 C.3     1  UNL1        0.0000
   8205 C          29.0727   18.5049   20.7864 C.3     1  UNL1        0.0000
   8206 C          38.9586   23.2256   13.2853 C.3     1  UNL1        0.0000
   8207 C          32.5320   32.1289   13.2960 C.3     1  UNL1        0.0000
   8208 C          40.2811   26.9171   13.2293 C.2     1  UNL1        0.0000
   8209 C          29.6229   29.4907   13.1875 C.3     1  UNL1        0.0000
   8210 C          39.1338   21.1017   14.5381 C.ar    1  UNL1        0.0000
   8211 C          27.9870   27.2020   25.1911 C.ar    1  UNL1        0.0000
   8212 C          42.2342   27.8087   14.4164 C.3     1  UNL1        0.0000
   8213 C          22.9528   21.7805   25.0296 C.ar    1  UNL1        0.0000
   8214 C          37.6385   20.7362   25.0441 C.3     1  UNL1        0.0000
   8215 C          27.5234   28.8459   14.3755 C.ar    1  UNL1        0.0000
   8216 C          34.4763   13.9643   25.1932 C.ar    1  UNL1        0.0000
   8217 C          32.6385   34.3136   14.5627 C.ar    1  UNL1        0.0000
   8218 N          32.6936   33.7147   15.8009 N.pl3   1  UNL1        0.0000
   8219 N          37.0595   20.5533   23.8051 N.3     1  UNL1        0.0000
   8220 N          38.4491   24.9734   20.9283 N.3     1  UNL1        0.0000
   8221 N          36.5520   16.2367   22.5752 N.pl3   1  UNL1        0.0000
   8222 O          37.7064   25.2616   18.3612 O.2     1  UNL1        0.0000
   8223 O          27.2826   22.0271   21.2514 O.3     1  UNL1        0.0000
   8224 O          34.5328   17.8941   22.9731 O.3     1  UNL1        0.0000
   8225 O          31.0801   30.3427   16.6634 O.3     1  UNL1        0.0000
   8226 O          31.9164   28.9558   18.2495 O.3     1  UNL1        0.0000
   8227 O          32.9809   18.1381   21.3465 O.3     1  UNL1        0.0000
   8228 O          39.2946   24.9373   16.7836 O.2     1  UNL1        0.0000
   8229 O          26.4716   23.4142   22.8494 O.3     1  UNL1        0.0000
   8230 O          36.6221   24.6824   15.7846 O.3     1  UNL1        0.0000
   8231 O          28.9758   22.5410   23.3497 O.3     1  UNL1        0.0000
   8232 O          37.5608   26.9697   16.2346 O.3     1  UNL1        0.0000
   8233 O          27.2237   20.8163   23.8424 O.3     1  UNL1        0.0000
   8234 O          31.8302   17.6084   23.9371 O.3     1  UNL1        0.0000
   8235 O          33.5986   29.5038   16.1652 O.3     1  UNL1        0.0000
   8236 O          32.7841   19.8699   23.4729 O.3     1  UNL1        0.0000
   8237 O          31.8924   27.7467   15.6478 O.3     1  UNL1        0.0000
   8238 O          34.2014   16.7541   25.2392 O.3     1  UNL1        0.0000
   8239 O          32.4489   31.4274   14.3912 O.3     1  UNL1        0.0000
   8240 O          35.0035   19.5423   25.2340 O.2     1  UNL1        0.0000
   8241 O          30.2129   29.5917   14.3311 O.3     1  UNL1        0.0000
   8242 O          39.7417   26.6169   14.3773 O.2     1  UNL1        0.0000
   8243 O          25.5874   22.6565   25.1651 O.3     1  UNL1        0.0000
   8244 O          38.9462   23.8626   14.4067 O.3     1  UNL1        0.0000
   8245 O          27.8556   24.4388   25.2464 O.3     1  UNL1        0.0000
   8246 O          34.8138   27.0739   16.2857 O.3     1  UNL1        0.0000
   8247 O          30.1119   20.0700   23.2667 O.3     1  UNL1        0.0000
   8248 O          37.2679   25.8487   13.3529 O.3     1  UNL1        0.0000
   8249 O          32.7003   28.9508   13.1862 O.3     1  UNL1        0.0000
   8250 H          33.8989   21.7620   21.5271 H       1  UNL1        0.0000
   8251 H          29.9997   16.0742   20.0745 H       1  UNL1        0.0000
   8252 H          34.7345   30.8439   18.7711 H      59  UNL59       0.0000
   8253 H          35.0190   23.5196   20.1215 H       1  UNL1        0.0000
   8254 H          30.1032   23.7100   20.9237 H       1  UNL1        0.0000
   8255 H          26.5487   18.6339   19.8402 H       1  UNL1        0.0000
   8256 H          31.4495   21.8638   21.8896 H       1  UNL1        0.0000
   8257 H          31.2299   25.4769   19.5450 H       1  UNL1        0.0000
   8258 H          35.8167   28.6479   18.3795 H      59  UNL59       0.0000
   8259 H          22.1964   28.8406   18.9159 H       1  UNL1        0.0000
   8260 C          33.1882   24.5995   19.7582 C.ar    1  UNL1        0.0000
   8261 C          31.9392   22.6351   21.2964 C.ar    1  UNL1        0.0000
   8262 C          36.3847   29.4527   18.8469 C.2    59  UNL59       0.0000
   8263 C          28.3459   17.4575   20.0239 C.ar    1  UNL1        0.0000
   8264 C          31.8006   24.6628   19.9868 C.ar    1  UNL1        0.0000
   8265 C          33.3229   22.5764   21.0897 C.ar    1  UNL1        0.0000
   8266 C          35.7708   30.6915   19.0691 C.2    59  UNL59       0.0000
   8267 C          28.9636   16.2178   19.7749 C.ar    1  UNL1        0.0000
   8268 C          37.7225   29.2440   19.2022 C.3    59  UNL59       0.0000
   8269 C          27.0081   17.6678   19.6413 C.ar    1  UNL1        0.0000
   8270 C          33.9489   23.5555   20.3153 C.ar    1  UNL1        0.0000
   8271 C          31.1779   23.6764   20.7512 C.ar    1  UNL1        0.0000
   8272 O          35.0691   25.4567   18.5669 O.3     1  UNL1        0.0000
   8273 O          28.4488   19.5829   21.0997 O.3     1  UNL1        0.0000
   8274 O          30.2701   18.2594   21.1755 O.3     1  UNL1        0.0000
   8275 O          33.1061   26.5484   18.4005 O.3     1  UNL1        0.0000
   8276 N          36.3064   30.9648   38.3534 N.pl3  59  UNL59       0.0000
   8277 N          36.7811   30.1854   40.3385 N.pl3  59  UNL59       0.0000
   8278 C          36.9852   29.7697   38.1694 C.2    59  UNL59       0.0000
   8279 C          37.2858   29.2847   39.4160 C.2    59  UNL59       0.0000
   8280 C          38.0823   31.1349   42.2273 C.3    59  UNL59       0.0000
   8281 C          35.8138   31.8494   37.2899 C.3    59  UNL59       0.0000
   8282 C          36.1867   31.1938   39.6733 C.3    59  UNL59       0.0000
   8283 C          36.9958   30.1491   41.8035 C.3    59  UNL59       0.0000
   8284 H          37.2173   29.3737   37.1886 H      59  UNL59       0.0000
   8285 H          37.8040   28.3834   39.7203 H      59  UNL59       0.0000
   8286 H          39.0370   30.9056   41.7371 H      59  UNL59       0.0000
   8287 H          36.6526   32.1334   36.6455 H      59  UNL59       0.0000
   8288 H          37.8044   32.1689   41.9867 H      59  UNL59       0.0000
   8289 H          35.0544   31.3106   36.7115 H      59  UNL59       0.0000
   8290 H          38.2272   31.0666   43.3138 H      59  UNL59       0.0000
   8291 H          37.2821   29.1180   42.0510 H      59  UNL59       0.0000
   8292 H          35.3715   32.7384   37.7501 H      59  UNL59       0.0000
   8293 H          35.6870   32.0428   40.1229 H      59  UNL59       0.0000
   8294 H          36.0280   30.3544   42.2770 H      59  UNL59       0.0000
   8295 TI         22.8395   15.6501   37.5913 Ti      1  UNL1        0.0000
   8296 TI         33.6700   18.5313   28.2265 Ti      1  UNL1        0.0000
   8297 TI         26.9362   11.7139   35.7713 Ti      1  UNL1        0.0000
   8298 TI         28.4474   20.8760   29.9983 Ti      1  UNL1        0.0000
   8299 TI         27.4488   22.5544   28.0939 Ti      1  UNL1        0.0000
   8300 TI         28.8244   11.4596   37.7247 Ti      1  UNL1        0.0000
   8301 TI         23.7887   13.9142   35.6998 Ti      1  UNL1        0.0000
   8302 TI         31.6822   18.8339   30.0739 Ti      1  UNL1        0.0000
   8303 H          23.3414   19.5472   37.3718 H       1  UNL1        0.0000
   8304 H          34.4788   14.6253   28.5472 H       1  UNL1        0.0000
   8305 H          18.8796   14.8935   37.2088 H       1  UNL1        0.0000
   8306 H          37.0521   20.5356   28.4271 H       1  UNL1        0.0000
   8307 H          29.8000    7.4250   37.3387 H       1  UNL1        0.0000
   8308 H          23.3903   21.9645   28.4159 H       1  UNL1        0.0000
   8309 H          27.9433   20.9176   26.2208 H       1  UNL1        0.0000
   8310 H          31.7945   18.2886   26.5265 H       1  UNL1        0.0000
   8311 H          29.3343   10.7925   32.2136 H       1  UNL1        0.0000
   8312 H          26.7240   22.7131   33.6172 H       1  UNL1        0.0000
   8313 H          19.7161   17.3028   35.3439 H       1  UNL1        0.0000
   8314 H          36.4248   16.4470   30.5325 H       1  UNL1        0.0000
   8315 H          22.0172   15.8554   32.0101 H       1  UNL1        0.0000
   8316 H          24.3488   24.3822   30.4471 H       1  UNL1        0.0000
   8317 H          27.8411   25.6572   28.9494 H       1  UNL1        0.0000
   8318 H          34.3210   12.6064   29.7496 H       1  UNL1        0.0000
   8319 H          30.5400   20.5562   28.6596 H       1  UNL1        0.0000
   8320 H          25.8555   13.5623   37.0649 H       1  UNL1        0.0000
   8321 H          33.0592   13.3944   36.1143 H       1  UNL1        0.0000
   8322 H          31.5780   12.9254   36.8617 H       1  UNL1        0.0000
   8323 H          33.6333   17.8281   35.0154 H       1  UNL1        0.0000
   8324 H          33.0636   18.1866   33.3969 H       1  UNL1        0.0000
   8325 H          32.5703    8.4396   35.9243 H       1  UNL1        0.0000
   8326 H          31.2912    9.5402   36.3817 H       1  UNL1        0.0000
   8327 C          34.2480   17.7901   31.0900 C.2     1  UNL1        0.0000
   8328 C          21.8790   15.9115   34.7443 C.3     1  UNL1        0.0000
   8329 C          29.5167   10.7032   34.8466 C.3     1  UNL1        0.0000
   8330 C          26.5113   22.8466   30.9576 C.3     1  UNL1        0.0000
   8331 C          35.1441   17.1858   32.0852 C.2     1  UNL1        0.0000
   8332 C          20.9471   16.5365   33.7672 C.ar    1  UNL1        0.0000
   8333 C          30.4569   10.0889   33.8994 C.ar    1  UNL1        0.0000
   8334 C          25.6215   23.4934   31.9574 C.ar    1  UNL1        0.0000
   8335 C          34.8953   17.2607   33.4916 C.3     1  UNL1        0.0000
   8336 C          21.1635   16.4165   32.3792 C.ar    1  UNL1        0.0000
   8337 C          31.5864    9.3286   34.3525 C.ar    1  UNL1        0.0000
   8338 C          24.5267   24.2663   31.5125 C.ar    1  UNL1        0.0000
   8339 C          25.8760   23.3226   33.3123 C.ar    1  UNL1        0.0000
   8340 C          30.2092   10.2210   32.5155 C.ar    1  UNL1        0.0000
   8341 C          36.2777   16.4868   31.6095 C.3     1  UNL1        0.0000
   8342 C          19.8469   17.2289   34.2659 C.ar    1  UNL1        0.0000
   8343 C          34.4598   14.7043   26.4031 C.ar    1  UNL1        0.0000
   8344 C          27.9901   26.4959   26.4281 C.ar    1  UNL1        0.0000
   8345 C          36.9442   20.4675   26.2771 C.2     1  UNL1        0.0000
   8346 C          23.5859   22.0099   26.2577 C.ar    1  UNL1        0.0000
   8347 C          29.1941   18.5329   31.9629 C.3     1  UNL1        0.0000
   8348 C          24.4380   11.4385   33.8810 C.3     1  UNL1        0.0000
   8349 C          34.3240   16.1592   26.3799 C.3     1  UNL1        0.0000
   8350 C          27.8973   25.0624   26.3906 C.3     1  UNL1        0.0000
   8351 C          35.6464   19.8506   26.3239 C.2     1  UNL1        0.0000
   8352 C          24.9882   22.4242   26.2821 C.3     1  UNL1        0.0000
   8353 C          34.4992   14.0352   27.6327 C.ar    1  UNL1        0.0000
   8354 C          23.3523   20.1356   38.2857 C.ar    1  UNL1        0.0000
   8355 C          37.5995   20.7423   27.5110 C.3     1  UNL1        0.0000
   8356 C          18.3181   14.7141   38.1242 C.ar    1  UNL1        0.0000
   8357 C          33.0039   13.6697   38.1387 C.3     1  UNL1        0.0000
   8358 C          22.8887   21.7795   27.4701 C.ar    1  UNL1        0.0000
   8359 C          29.8417    6.8979   38.2878 C.ar    1  UNL1        0.0000
   8360 C          28.0039   27.2471   27.6574 C.ar    1  UNL1        0.0000
   8361 N          28.0589   26.6483   28.8955 N.pl3   1  UNL1        0.0000
   8362 N          32.4249   13.4869   36.8997 N.3     1  UNL1        0.0000
   8363 N          33.8144   17.9069   34.0229 N.3     1  UNL1        0.0000
   8364 N          31.9174    9.1703   35.6699 N.pl3   1  UNL1        0.0000
   8365 O          33.0717   18.1952   31.4558 O.2     1  UNL1        0.0000
   8366 O          22.6480   14.9606   34.3460 O.3     1  UNL1        0.0000
   8367 O          29.8982   10.8277   36.0677 O.3     1  UNL1        0.0000
   8368 O          26.4454   23.2762   29.7580 O.3     1  UNL1        0.0000
   8369 O          27.2817   21.8893   31.3441 O.3     1  UNL1        0.0000
   8370 O          28.3463   11.0717   34.4411 O.3     1  UNL1        0.0000
   8371 O          34.6599   17.8708   29.8783 O.2     1  UNL1        0.0000
   8372 O          21.8370   16.3477   35.9440 O.3     1  UNL1        0.0000
   8373 O          31.9874   17.6160   28.8792 O.3     1  UNL1        0.0000
   8374 O          24.3412   15.4746   36.4443 O.3     1  UNL1        0.0000
   8375 O          32.9262   19.9033   29.3292 O.3     1  UNL1        0.0000
   8376 O          22.5890   13.7499   36.9370 O.3     1  UNL1        0.0000
   8377 O          27.1955   10.5420   37.0317 O.3     1  UNL1        0.0000
   8378 O          28.9640   22.4374   29.2598 O.3     1  UNL1        0.0000
   8379 O          28.1495   12.8034   36.5675 O.3     1  UNL1        0.0000
   8380 O          27.2577   20.6803   28.7424 O.3     1  UNL1        0.0000
   8381 O          29.5667    9.6877   38.3338 O.3     1  UNL1        0.0000
   8382 O          27.8142   24.3610   27.4858 O.3     1  UNL1        0.0000
   8383 O          30.3689   12.4759   38.3287 O.2     1  UNL1        0.0000
   8384 O          25.5783   22.5252   27.4257 O.3     1  UNL1        0.0000
   8385 O          35.1071   19.5505   27.4719 O.2     1  UNL1        0.0000
   8386 O          20.9527   15.5901   38.2597 O.3     1  UNL1        0.0000
   8387 O          34.3115   16.7961   27.5013 O.3     1  UNL1        0.0000
   8388 O          23.2209   17.3724   38.3410 O.3     1  UNL1        0.0000
   8389 O          30.1792   20.0074   29.3803 O.3     1  UNL1        0.0000
   8390 O          25.4773   13.0036   36.3613 O.3     1  UNL1        0.0000
   8391 O          32.6333   18.7823   26.4475 O.3     1  UNL1        0.0000
   8392 O          28.0657   21.8844   26.2808 O.3     1  UNL1        0.0000
   8393 H          29.2643   14.6956   34.6217 H       1  UNL1        0.0000
   8394 H          25.3651    9.0078   33.1691 H       1  UNL1        0.0000
   8395 H          30.0998   23.7774   31.8657 H      59  UNL59       0.0000
   8396 H          30.3844   16.4531   33.2161 H       1  UNL1        0.0000
   8397 H          25.4685   16.6435   34.0183 H       1  UNL1        0.0000
   8398 H          21.9140   11.5674   32.9348 H       1  UNL1        0.0000
   8399 H          26.8149   14.7974   34.9842 H       1  UNL1        0.0000
   8400 H          26.5952   18.4105   32.6396 H       1  UNL1        0.0000
   8401 H          31.1821   21.5814   31.4741 H      59  UNL59       0.0000
   8402 H          17.5617   21.7741   32.0105 H       1  UNL1        0.0000
   8403 C          28.5536   17.5330   32.8528 C.ar    1  UNL1        0.0000
   8404 C          27.3046   15.5687   34.3910 C.ar    1  UNL1        0.0000
   8405 C          31.7501   22.3863   31.9415 C.2    59  UNL59       0.0000
   8406 C          23.7112   10.3910   33.1185 C.ar    1  UNL1        0.0000
   8407 C          27.1660   17.5964   33.0814 C.ar    1  UNL1        0.0000
   8408 C          28.6883   15.5100   34.1844 C.ar    1  UNL1        0.0000
   8409 C          31.1361   23.6251   32.1637 C.2    59  UNL59       0.0000
   8410 C          24.3290    9.1514   32.8695 C.ar    1  UNL1        0.0000
   8411 C          33.0878   22.1776   32.2968 C.3    59  UNL59       0.0000
   8412 C          22.3734   10.6014   32.7359 C.ar    1  UNL1        0.0000
   8413 C          29.3142   16.4890   33.4099 C.ar    1  UNL1        0.0000
   8414 C          26.5433   16.6099   33.8458 C.ar    1  UNL1        0.0000
   8415 O          30.4345   18.3903   31.6615 O.3     1  UNL1        0.0000
   8416 O          23.8141   12.5164   34.1943 O.3     1  UNL1        0.0000
   8417 O          25.6355   11.1930   34.2701 O.3     1  UNL1        0.0000
   8418 O          28.4714   19.4819   31.4951 O.3     1  UNL1        0.0000
   8419 N          31.6718   23.8984   51.4480 N.pl3  59  UNL59       0.0000
   8420 N          32.1465   23.1190   53.4331 N.pl3  59  UNL59       0.0000
   8421 C          32.3505   22.7033   51.2640 C.2    59  UNL59       0.0000
   8422 C          32.6512   22.2182   52.5107 C.2    59  UNL59       0.0000
   8423 C          33.4476   24.0685   55.3219 C.3    59  UNL59       0.0000
   8424 C          31.1791   24.7830   50.3845 C.3    59  UNL59       0.0000
   8425 C          31.5521   24.1274   52.7679 C.3    59  UNL59       0.0000
   8426 C          32.3612   23.0826   54.8981 C.3    59  UNL59       0.0000
   8427 H          32.5826   22.3073   50.2832 H      59  UNL59       0.0000
   8428 H          33.1693   21.3169   52.8149 H      59  UNL59       0.0000
   8429 H          34.4024   23.8392   54.8317 H      59  UNL59       0.0000
   8430 H          32.0179   25.0670   49.7401 H      59  UNL59       0.0000
   8431 H          33.1698   25.1025   55.0814 H      59  UNL59       0.0000
   8432 H          30.4197   24.2442   49.8061 H      59  UNL59       0.0000
   8433 H          33.5926   24.0001   56.4084 H      59  UNL59       0.0000
   8434 H          32.6475   22.0516   55.1456 H      59  UNL59       0.0000
   8435 H          30.7368   25.6720   50.8448 H      59  UNL59       0.0000
   8436 H          31.0524   24.9764   53.2175 H      59  UNL59       0.0000
   8437 H          31.3934   23.2880   55.3716 H      59  UNL59       0.0000
   8438 TI         18.2049    8.5837   50.6859 Ti      1  UNL1        0.0000
   8439 TI         29.0354   11.4649   41.3211 Ti      1  UNL1        0.0000
   8440 TI         22.3016    4.6475   48.8659 Ti      1  UNL1        0.0000
   8441 TI         23.8128   13.8096   43.0929 Ti      1  UNL1        0.0000
   8442 TI         22.8142   15.4879   41.1885 Ti      1  UNL1        0.0000
   8443 TI         24.1898    4.3931   50.8193 Ti      1  UNL1        0.0000
   8444 TI         19.1541    6.8478   48.7944 Ti      1  UNL1        0.0000
   8445 TI         27.0475   11.7674   43.1685 Ti      1  UNL1        0.0000
   8446 H          18.7068   12.4808   50.4664 H      59  UNL59       0.0000
   8447 H          29.8441    7.5588   41.6418 H       1  UNL1        0.0000
   8448 H          14.2450    7.8271   50.3034 H      59  UNL59       0.0000
   8449 H          32.4175   13.4692   41.5217 H       1  UNL1        0.0000
   8450 H          25.1654    0.3586   50.4334 H      59  UNL59       0.0000
   8451 H          18.7557   14.8980   41.5105 H       1  UNL1        0.0000
   8452 H          23.3086   13.8511   39.3154 H       1  UNL1        0.0000
   8453 H          27.1598   11.2222   39.6211 H       1  UNL1        0.0000
   8454 H          24.6997    3.7260   45.3082 H       1  UNL1        0.0000
   8455 H          22.0893   15.6466   46.7118 H       1  UNL1        0.0000
   8456 H          15.0815   10.2364   48.4385 H       1  UNL1        0.0000
   8457 H          31.7901    9.3806   43.6271 H       1  UNL1        0.0000
   8458 H          17.3826    8.7890   45.1047 H       1  UNL1        0.0000
   8459 H          19.7141   17.3158   43.5417 H       1  UNL1        0.0000
   8460 H          23.2064   18.5908   42.0440 H       1  UNL1        0.0000
   8461 H          29.6863    5.5400   42.8443 H       1  UNL1        0.0000
   8462 H          25.9054   13.4897   41.7543 H       1  UNL1        0.0000
   8463 H          21.2209    6.4959   50.1595 H       1  UNL1        0.0000
   8464 H          28.4245    6.3280   49.2089 H      59  UNL59       0.0000
   8465 H          26.9434    5.8589   49.9563 H      59  UNL59       0.0000
   8466 H          28.9986   10.7616   48.1100 H       1  UNL1        0.0000
   8467 H          28.4289   11.1202   46.4915 H       1  UNL1        0.0000
   8468 H          27.9357    1.3732   49.0189 H       1  UNL1        0.0000
   8469 H          26.6566    2.4737   49.4763 H       1  UNL1        0.0000
   8470 C          29.6134   10.7237   44.1846 C.2     1  UNL1        0.0000
   8471 C          17.2443    8.8451   47.8389 C.3     1  UNL1        0.0000
   8472 C          24.8821    3.6368   47.9412 C.3     1  UNL1        0.0000
   8473 C          21.8766   15.7801   44.0522 C.3     1  UNL1        0.0000
   8474 C          30.5094   10.1193   45.1798 C.2     1  UNL1        0.0000
   8475 C          16.3124    9.4701   46.8618 C.ar    1  UNL1        0.0000
   8476 C          25.8223    3.0224   46.9940 C.ar    1  UNL1        0.0000
   8477 C          20.9868   16.4269   45.0520 C.ar    1  UNL1        0.0000
   8478 C          30.2606   10.1943   46.5862 C.3     1  UNL1        0.0000
   8479 C          16.5288    9.3501   45.4738 C.ar    1  UNL1        0.0000
   8480 C          26.9517    2.2621   47.4471 C.ar    1  UNL1        0.0000
   8481 C          19.8921   17.1999   44.6071 C.ar    1  UNL1        0.0000
   8482 C          21.2413   16.2562   46.4069 C.ar    1  UNL1        0.0000
   8483 C          25.5746    3.1546   45.6101 C.ar    1  UNL1        0.0000
   8484 C          31.6431    9.4204   44.7041 C.3     1  UNL1        0.0000
   8485 C          15.2123   10.1625   47.3605 C.ar    1  UNL1        0.0000
   8486 C          29.8252    7.6379   39.4977 C.ar    1  UNL1        0.0000
   8487 C          23.3554   19.4295   39.5227 C.ar    1  UNL1        0.0000
   8488 C          32.3096   13.4010   39.3717 C.2     1  UNL1        0.0000
   8489 C          18.9513   14.9435   39.3523 C.ar    1  UNL1        0.0000
   8490 C          24.5595   11.4664   45.0575 C.3     1  UNL1        0.0000
   8491 C          19.8034    4.3721   46.9756 C.3     1  UNL1        0.0000
   8492 C          29.6893    9.0928   39.4745 C.3     1  UNL1        0.0000
   8493 C          23.2627   17.9960   39.4852 C.3     1  UNL1        0.0000
   8494 C          31.0118   12.7842   39.4185 C.2     1  UNL1        0.0000
   8495 C          20.3536   15.3578   39.3767 C.3     1  UNL1        0.0000
   8496 C          29.8645    6.9688   40.7274 C.ar    1  UNL1        0.0000
   8497 C          18.7177   13.0692   51.3803 C.2    59  UNL59       0.0000
   8498 C          32.9649   13.6758   40.6056 C.3     1  UNL1        0.0000
   8499 C          13.6835    7.6477   51.2188 C.2    59  UNL59       0.0000
   8500 C          28.3693    6.6033   51.2333 C.3    59  UNL59       0.0000
   8501 C          18.2541   14.7130   40.5648 C.ar    1  UNL1        0.0000
   8502 C          25.2070   -0.1686   51.3824 C.2    59  UNL59       0.0000
   8503 C          23.3692   20.1807   40.7520 C.ar    1  UNL1        0.0000
   8504 N          23.4243   19.5819   41.9901 N.pl3   1  UNL1        0.0000
   8505 N          27.7902    6.4205   49.9943 N.3    59  UNL59       0.0000
   8506 N          29.1798   10.8405   47.1175 N.3     1  UNL1        0.0000
   8507 N          27.2827    2.1039   48.7645 N.pl3   1  UNL1        0.0000
   8508 O          28.4371   11.1287   44.5504 O.2     1  UNL1        0.0000
   8509 O          18.0133    7.8942   47.4406 O.3     1  UNL1        0.0000
   8510 O          25.2635    3.7613   49.1623 O.3     1  UNL1        0.0000
   8511 O          21.8108   16.2098   42.8526 O.3     1  UNL1        0.0000
   8512 O          22.6471   14.8229   44.4387 O.3     1  UNL1        0.0000
   8513 O          23.7116    4.0052   47.5357 O.3     1  UNL1        0.0000
   8514 O          30.0253   10.8044   42.9729 O.2     1  UNL1        0.0000
   8515 O          17.2023    9.2813   49.0386 O.3     1  UNL1        0.0000
   8516 O          27.3528   10.5495   41.9739 O.3     1  UNL1        0.0000
   8517 O          19.7065    8.4081   49.5389 O.3     1  UNL1        0.0000
   8518 O          28.2915   12.8368   42.4238 O.3     1  UNL1        0.0000
   8519 O          17.9544    6.6835   50.0316 O.3     1  UNL1        0.0000
   8520 O          22.5609    3.4755   50.1263 O.3     1  UNL1        0.0000
   8521 O          24.3293   15.3709   42.3544 O.3     1  UNL1        0.0000
   8522 O          23.5148    5.7370   49.6622 O.3     1  UNL1        0.0000
   8523 O          22.6231   13.6138   41.8370 O.3     1  UNL1        0.0000
   8524 O          24.9321    2.6213   51.4284 O.3     1  UNL1        0.0000
   8525 O          23.1796   17.2945   40.5804 O.3     1  UNL1        0.0000
   8526 O          25.7342    5.4095   51.4233 O.3     1  UNL1        0.0000
   8527 O          20.9436   15.4588   40.5203 O.3     1  UNL1        0.0000
   8528 O          30.4724   12.4840   40.5665 O.2     1  UNL1        0.0000
   8529 O          16.3181    8.5236   51.3543 O.3     1  UNL1        0.0000
   8530 O          29.6769    9.7297   40.5959 O.3     1  UNL1        0.0000
   8531 O          18.5863   10.3060   51.4356 O.3     1  UNL1        0.0000
   8532 O          25.5445   12.9410   42.4749 O.3     1  UNL1        0.0000
   8533 O          20.8426    5.9372   49.4559 O.3     1  UNL1        0.0000
   8534 O          27.9987   11.7159   39.5421 O.3     1  UNL1        0.0000
   8535 O          23.4310   14.8179   39.3754 O.3     1  UNL1        0.0000
   8536 H          24.6296    7.6291   47.7163 H       1  UNL1        0.0000
   8537 H          20.7304    1.9413   46.2637 H       1  UNL1        0.0000
   8538 H          25.4652   16.7110   44.9603 H      59  UNL59       0.0000
   8539 H          25.7497    9.3867   46.3107 H       1  UNL1        0.0000
   8540 H          20.8339    9.5771   47.1129 H       1  UNL1        0.0000
   8541 H          17.2794    4.5010   46.0294 H       1  UNL1        0.0000
   8542 H          22.1802    7.7309   48.0788 H       1  UNL1        0.0000
   8543 H          21.9606   11.3440   45.7342 H       1  UNL1        0.0000
   8544 H          26.5474   14.5150   44.5687 H      59  UNL59       0.0000
   8545 H          12.9271   14.7077   45.1051 H       1  UNL1        0.0000
   8546 C          23.9189   10.4666   45.9474 C.ar    1  UNL1        0.0000
   8547 C          22.6699    8.5022   47.4856 C.ar    1  UNL1        0.0000
   8548 C          27.1154   15.3199   45.0361 C.2    59  UNL59       0.0000
   8549 C          19.0766    3.3246   46.2132 C.ar    1  UNL1        0.0000
   8550 C          22.5313   10.5300   46.1760 C.ar    1  UNL1        0.0000
   8551 C          24.0536    8.4435   47.2790 C.ar    1  UNL1        0.0000
   8552 C          26.5015   16.5586   45.2583 C.2    59  UNL59       0.0000
   8553 C          19.6943    2.0849   45.9641 C.ar    1  UNL1        0.0000
   8554 C          28.4532   15.1111   45.3914 C.3    59  UNL59       0.0000
   8555 C          17.7388    3.5349   45.8305 C.ar    1  UNL1        0.0000
   8556 C          24.6796    9.4226   46.5045 C.ar    1  UNL1        0.0000
   8557 C          21.9086    9.5435   46.9404 C.ar    1  UNL1        0.0000
   8558 O          25.7999   11.3239   44.7561 O.3     1  UNL1        0.0000
   8559 O          19.1795    5.4500   47.2889 O.3     1  UNL1        0.0000
   8560 O          21.0008    4.1266   47.3647 O.3     1  UNL1        0.0000
   8561 O          23.8368   12.4155   44.5897 O.3     1  UNL1        0.0000
   8562 N          27.0371   16.8320   64.5426 N.pl3  59  UNL59       0.0000
   8563 N          27.5118   16.0525   66.5277 N.pl3  59  UNL59       0.0000
   8564 C          27.7159   15.6368   64.3586 C.2    59  UNL59       0.0000
   8565 C          28.0165   15.1518   65.6053 C.2    59  UNL59       0.0000
   8566 C          28.8130   17.0020   68.4165 C.3    59  UNL59       0.0000
   8567 C          26.5445   17.7166   63.4791 C.3    59  UNL59       0.0000
   8568 C          26.9174   17.0609   65.8625 C.3    59  UNL59       0.0000
   8569 C          27.7265   16.0162   67.9928 C.3    59  UNL59       0.0000
   8570 H          27.9480   15.2408   63.3778 H      59  UNL59       0.0000
   8571 H          28.5347   14.2505   65.9095 H      59  UNL59       0.0000
   8572 H          29.7677   16.7727   67.9263 H      59  UNL59       0.0000
   8573 H          27.3833   18.0005   62.8347 H      59  UNL59       0.0000
   8574 H          28.5351   18.0360   68.1760 H      59  UNL59       0.0000
   8575 H          25.7851   17.1778   62.9007 H      59  UNL59       0.0000
   8576 H          28.9579   16.9337   69.5031 H      59  UNL59       0.0000
   8577 H          28.0128   14.9851   68.2402 H      59  UNL59       0.0000
   8578 H          26.1022   18.6056   63.9394 H      59  UNL59       0.0000
   8579 H          26.4177   17.9099   66.3121 H      59  UNL59       0.0000
   8580 H          26.7587   16.2215   68.4662 H      59  UNL59       0.0000
   8581 TI         25.5918   44.3955   11.3455 Ti      1  UNL1        0.0000
   8582 TI         36.4223   47.2767    1.9807 Ti      1  UNL1        0.0000
   8583 TI         29.6885   40.4593    9.5256 Ti      1  UNL1        0.0000
   8584 TI         31.1997   49.6214    3.7525 Ti      1  UNL1        0.0000
   8585 TI         30.2011   51.2997    1.8481 Ti      1  UNL1        0.0000
   8586 TI         31.5767   40.2050   11.4789 Ti      1  UNL1        0.0000
   8587 TI         26.5410   42.6596    9.4541 Ti      1  UNL1        0.0000
   8588 TI         34.4344   47.5793    3.8282 Ti      1  UNL1        0.0000
   8589 H          26.0937   48.2926   11.1261 H       1  UNL1        0.0000
   8590 H          37.2310   43.3707    2.3014 H       1  UNL1        0.0000
   8591 H          21.6319   43.6389   10.9631 H       1  UNL1        0.0000
   8592 H          39.8044   49.2810    2.1814 H       1  UNL1        0.0000
   8593 H          32.5523   36.1704   11.0930 H       1  UNL1        0.0000
   8594 H          26.1426   50.7098    2.1702 H       1  UNL1        0.0000
   8595 H          30.6955   49.6629   -0.0249 H       1  UNL1        0.0000
   8596 H          34.5467   47.0340    0.2808 H       1  UNL1        0.0000
   8597 H          32.0866   39.5378    5.9678 H       1  UNL1        0.0000
   8598 H          29.4762   51.4585    7.3715 H       1  UNL1        0.0000
   8599 H          22.4684   46.0482    9.0982 H       1  UNL1        0.0000
   8600 H          39.1770   45.1924    4.2867 H       1  UNL1        0.0000
   8601 H          24.7695   44.6008    5.7643 H       1  UNL1        0.0000
   8602 H          27.1010   53.1276    4.2014 H       1  UNL1        0.0000
   8603 H          30.5933   54.4026    2.7036 H       1  UNL1        0.0000
   8604 H          37.0732   41.3518    3.5039 H       1  UNL1        0.0000
   8605 H          33.2923   49.3016    2.4139 H       1  UNL1        0.0000
   8606 H          28.6078   42.3077   10.8192 H       1  UNL1        0.0000
   8607 H          35.8114   42.1398    9.8686 H       1  UNL1        0.0000
   8608 H          34.3303   41.6707   10.6159 H       1  UNL1        0.0000
   8609 H          36.3855   46.5734    8.7697 H       1  UNL1        0.0000
   8610 H          35.8158   46.9320    7.1512 H       1  UNL1        0.0000
   8611 H          35.3226   37.1850    9.6786 H       1  UNL1        0.0000
   8612 H          34.0435   38.2856   10.1360 H       1  UNL1        0.0000
   8613 C          37.0003   46.5355    4.8443 C.2     1  UNL1        0.0000
   8614 C          24.6312   44.6569    8.4985 C.3     1  UNL1        0.0000
   8615 C          32.2690   39.4486    8.6008 C.3     1  UNL1        0.0000
   8616 C          29.2635   51.5919    4.7119 C.3     1  UNL1        0.0000
   8617 C          37.8963   45.9312    5.8395 C.2     1  UNL1        0.0000
   8618 C          23.6993   45.2819    7.5215 C.ar    1  UNL1        0.0000
   8619 C          33.2092   38.8342    7.6537 C.ar    1  UNL1        0.0000
   8620 C          28.3737   52.2387    5.7117 C.2     1  UNL1        0.0000
   8621 C          37.6476   46.0061    7.2459 C.3     1  UNL1        0.0000
   8622 C          23.9157   45.1619    6.1334 C.ar    1  UNL1        0.0000
   8623 C          34.3386   38.0739    8.1067 C.ar    1  UNL1        0.0000
   8624 C          27.2790   53.0117    5.2668 C.3     1  UNL1        0.0000
   8625 C          28.6282   52.0680    7.0666 C.2     1  UNL1        0.0000
   8626 C          32.9615   38.9664    6.2697 C.ar    1  UNL1        0.0000
   8627 C          39.0300   45.2322    5.3638 C.3     1  UNL1        0.0000
   8628 C          22.5992   45.9743    8.0202 C.ar    1  UNL1        0.0000
   8629 C          37.2121   43.4497    0.1573 C.2     1  UNL1        0.0000
   8630 C          30.7423   55.2413    0.1823 C.2     1  UNL1        0.0000
   8631 C          39.6965   49.2128    0.0313 C.2     1  UNL1        0.0000
   8632 C          26.3382   50.7553    0.0119 C.2     1  UNL1        0.0000
   8633 C          31.9464   47.2783    5.7171 C.3     1  UNL1        0.0000
   8634 C          27.1903   40.1839    7.6353 C.3     1  UNL1        0.0000
   8635 C          37.0762   44.9046    0.1341 C.2     1  UNL1        0.0000
   8636 C          30.6496   53.8078    0.1448 C.2     1  UNL1        0.0000
   8637 C          38.3987   48.5960    0.0782 C.2     1  UNL1        0.0000
   8638 C          27.7405   51.1696    0.0364 C.2     1  UNL1        0.0000
   8639 C          37.2514   42.7806    1.3870 C.2     1  UNL1        0.0000
   8640 C          26.1046   48.8810   12.0400 C.3     1  UNL1        0.0000
   8641 C          40.3518   49.4876    1.2653 C.3     1  UNL1        0.0000
   8642 C          21.0704   43.4595   11.8785 C.ar    1  UNL1        0.0000
   8643 C          35.7562   42.4151   11.8929 C.3     1  UNL1        0.0000
   8644 C          25.6410   50.5249    1.2244 C.2     1  UNL1        0.0000
   8645 C          32.5939   35.6433   12.0421 C.ar    1  UNL1        0.0000
   8646 C          30.7561   55.9925    1.4116 C.3     1  UNL1        0.0000
   8647 N          30.8112   55.3937    2.6498 N.3     1  UNL1        0.0000
   8648 N          35.1771   42.2323   10.6540 N.3     1  UNL1        0.0000
   8649 N          36.5667   46.6523    7.7772 N.3     1  UNL1        0.0000
   8650 N          34.6696   37.9157    9.4241 N.pl3   1  UNL1        0.0000
   8651 O          35.8240   46.9406    5.2101 O.2     1  UNL1        0.0000
   8652 O          25.4002   43.7060    8.1002 O.3     1  UNL1        0.0000
   8653 O          32.6504   39.5731    9.8220 O.3     1  UNL1        0.0000
   8654 O          29.1977   52.0216    3.5123 O.3     1  UNL1        0.0000
   8655 O          30.0340   50.6347    5.0984 O.3     1  UNL1        0.0000
   8656 O          31.0986   39.8170    8.1953 O.3     1  UNL1        0.0000
   8657 O          37.4122   46.6162    3.6325 O.2     1  UNL1        0.0000
   8658 O          24.5892   45.0931    9.6982 O.3     1  UNL1        0.0000
   8659 O          34.7397   46.3614    2.6335 O.3     1  UNL1        0.0000
   8660 O          27.0934   44.2200   10.1986 O.3     1  UNL1        0.0000
   8661 O          35.6785   48.6486    3.0835 O.3     1  UNL1        0.0000
   8662 O          25.3413   42.4953   10.6913 O.3     1  UNL1        0.0000
   8663 O          29.9478   39.2873   10.7860 O.3     1  UNL1        0.0000
   8664 O          31.7162   51.1827    3.0141 O.3     1  UNL1        0.0000
   8665 O          30.9017   41.5488   10.3218 O.3     1  UNL1        0.0000
   8666 O          30.0100   49.4256    2.4966 O.3     1  UNL1        0.0000
   8667 O          32.3190   38.4331   12.0880 O.3     1  UNL1        0.0000
   8668 O          30.5665   53.1064    1.2400 O.2     1  UNL1        0.0000
   8669 O          33.1211   41.2213   12.0829 O.2     1  UNL1        0.0000
   8670 O          28.3305   51.2706    1.1800 O.2     1  UNL1        0.0000
   8671 O          37.8593   48.2958    1.2262 O.2     1  UNL1        0.0000
   8672 O          23.7050   44.3354   12.0140 O.3     1  UNL1        0.0000
   8673 O          37.0638   45.5415    1.2556 O.2     1  UNL1        0.0000
   8674 O          25.9732   46.1178   12.0953 O.2     1  UNL1        0.0000
   8675 O          32.9315   48.7528    3.1346 O.3     1  UNL1        0.0000
   8676 O          28.2295   41.7490   10.1156 O.3     1  UNL1        0.0000
   8677 O          35.3856   47.5277    0.2018 O.3     1  UNL1        0.0000
   8678 O          30.8179   50.6297    0.0350 O.3     1  UNL1        0.0000
   8679 H          32.0165   43.4409    8.3759 H       1  UNL1        0.0000
   8680 H          28.1173   37.7531    6.9233 H       1  UNL1        0.0000
   8681 H          32.8521   52.5228    5.6200 H      59  UNL59       0.0000
   8682 H          33.1367   45.1985    6.9703 H       1  UNL1        0.0000
   8683 H          28.2208   45.3889    7.7726 H       1  UNL1        0.0000
   8684 H          24.6663   40.3128    6.6891 H       1  UNL1        0.0000
   8685 H          29.5672   43.5427    8.7385 H       1  UNL1        0.0000
   8686 H          29.3475   47.1559    6.3939 H       1  UNL1        0.0000
   8687 H          33.9344   50.3268    5.2284 H      59  UNL59       0.0000
   8688 H          20.3140   50.5195    5.7648 H      59  UNL59       0.0000
   8689 C          31.3058   46.2784    6.6071 C.ar    1  UNL1        0.0000
   8690 C          30.0568   44.3141    8.1453 C.ar    1  UNL1        0.0000
   8691 C          34.5023   51.1317    5.6958 C.2    59  UNL59       0.0000
   8692 C          26.4635   39.1364    6.8728 C.ar    1  UNL1        0.0000
   8693 C          29.9182   46.3418    6.8356 C.ar    1  UNL1        0.0000
   8694 C          31.4406   44.2553    7.9386 C.ar    1  UNL1        0.0000
   8695 C          33.8884   52.3704    5.9179 C.2    59  UNL59       0.0000
   8696 C          27.0812   37.8967    6.6238 C.ar    1  UNL1        0.0000
   8697 C          35.8401   50.9229    6.0511 C.3    59  UNL59       0.0000
   8698 C          25.1257   39.3468    6.4902 C.ar    1  UNL1        0.0000
   8699 C          32.0665   45.2344    7.1642 C.ar    1  UNL1        0.0000
   8700 C          29.2955   45.3553    7.6001 C.ar    1  UNL1        0.0000
   8701 O          33.1868   47.1357    5.4158 O.3     1  UNL1        0.0000
   8702 O          26.5664   41.2618    7.9486 O.3     1  UNL1        0.0000
   8703 O          28.3877   39.9384    8.0243 O.3     1  UNL1        0.0000
   8704 O          31.2237   48.2273    5.2494 O.3     1  UNL1        0.0000
   8705 N          34.4240   52.6438   25.2023 N.pl3  59  UNL59       0.0000
   8706 N          34.8987   51.8643   27.1873 N.pl3  59  UNL59       0.0000
   8707 C          35.1028   51.4487   25.0183 C.2    59  UNL59       0.0000
   8708 C          35.4034   50.9636   26.2649 C.2    59  UNL59       0.0000
   8709 C          36.1999   52.8139   29.0762 C.3    59  UNL59       0.0000
   8710 C          33.9314   53.5284   24.1388 C.3    59  UNL59       0.0000
   8711 C          34.3043   52.8727   26.5221 C.3    59  UNL59       0.0000
   8712 C          35.1134   51.8280   28.6524 C.3    59  UNL59       0.0000
   8713 H          35.3349   51.0526   24.0375 H      59  UNL59       0.0000
   8714 H          35.9216   50.0623   26.5691 H      59  UNL59       0.0000
   8715 H          37.1546   52.5845   28.5860 H      59  UNL59       0.0000
   8716 H          34.7702   53.8124   23.4943 H      59  UNL59       0.0000
   8717 H          35.9220   53.8479   28.8356 H      59  UNL59       0.0000
   8718 H          33.1720   52.9896   23.5603 H      59  UNL59       0.0000
   8719 H          36.3448   52.7455   30.1627 H      59  UNL59       0.0000
   8720 H          35.3997   50.7969   28.8999 H      59  UNL59       0.0000
   8721 H          33.4891   54.4174   24.5990 H      59  UNL59       0.0000
   8722 H          33.8046   53.7217   26.9717 H      59  UNL59       0.0000
   8723 H          34.1456   52.0333   29.1259 H      59  UNL59       0.0000
   8724 TI         20.9571   37.3291   24.4402 Ti      1  UNL1        0.0000
   8725 TI         31.7876   40.2103   15.0753 Ti      1  UNL1        0.0000
   8726 TI         25.0538   33.3929   22.6202 Ti      1  UNL1        0.0000
   8727 TI         26.5650   42.5550   16.8471 Ti      1  UNL1        0.0000
   8728 TI         25.5664   44.2333   14.9428 Ti      1  UNL1        0.0000
   8729 TI         26.9420   33.1385   24.5735 Ti      1  UNL1        0.0000
   8730 TI         21.9063   35.5932   22.5487 Ti      1  UNL1        0.0000
   8731 TI         29.7998   40.5128   16.9228 Ti      1  UNL1        0.0000
   8732 H          21.4590   41.2261   24.2207 H       1  UNL1        0.0000
   8733 H          32.5964   36.3042   15.3960 H       1  UNL1        0.0000
   8734 H          16.9972   36.5724   24.0577 H       1  UNL1        0.0000
   8735 H          35.1698   42.2146   15.2760 H       1  UNL1        0.0000
   8736 H          27.9176   29.1040   24.1876 H       1  UNL1        0.0000
   8737 H          21.5079   43.6434   15.2648 H       1  UNL1        0.0000
   8738 H          26.0609   42.5965   13.0697 H       1  UNL1        0.0000
   8739 H          29.9121   39.9676   13.3754 H       1  UNL1        0.0000
   8740 H          27.4519   32.4714   19.0624 H       1  UNL1        0.0000
   8741 H          24.8416   44.3920   20.4661 H       1  UNL1        0.0000
   8742 H          17.8337   38.9818   22.1928 H       1  UNL1        0.0000
   8743 H          34.5424   38.1259   17.3813 H       1  UNL1        0.0000
   8744 H          20.1348   37.5344   18.8589 H       1  UNL1        0.0000
   8745 H          22.4664   46.0612   17.2960 H       1  UNL1        0.0000
   8746 H          25.9587   47.3361   15.7982 H       1  UNL1        0.0000
   8747 H          32.4386   34.2854   16.5985 H       1  UNL1        0.0000
   8748 H          28.6576   42.2351   15.5085 H       1  UNL1        0.0000
   8749 H          23.9731   35.2413   23.9138 H       1  UNL1        0.0000
   8750 H          31.1768   35.0734   22.9632 H       1  UNL1        0.0000
   8751 H          29.6956   34.6043   23.7105 H       1  UNL1        0.0000
   8752 H          31.7509   39.5070   21.8643 H       1  UNL1        0.0000
   8753 H          31.1812   39.8656   20.2458 H       1  UNL1        0.0000
   8754 H          30.6880   30.1185   22.7732 H       1  UNL1        0.0000
   8755 H          29.4088   31.2191   23.2306 H       1  UNL1        0.0000
   8756 C          32.3657   39.4690   17.9389 C.2     1  UNL1        0.0000
   8757 C          19.9966   37.5904   21.5931 C.3     1  UNL1        0.0000
   8758 C          27.6343   32.3822   21.6955 C.3     1  UNL1        0.0000
   8759 C          24.6289   44.5255   17.8065 C.3     1  UNL1        0.0000
   8760 C          33.2617   38.8647   18.9341 C.2     1  UNL1        0.0000
   8761 C          19.0647   38.2155   20.6161 C.ar    1  UNL1        0.0000
   8762 C          28.5745   31.7678   20.7483 C.ar    1  UNL1        0.0000
   8763 C          23.7391   45.1723   18.8063 C.2     1  UNL1        0.0000
   8764 C          33.0129   38.9396   20.3405 C.3     1  UNL1        0.0000
   8765 C          19.2811   38.0955   19.2281 C.ar    1  UNL1        0.0000
   8766 C          29.7040   31.0075   21.2013 C.ar    1  UNL1        0.0000
   8767 C          22.6444   45.9453   18.3614 C.3     1  UNL1        0.0000
   8768 C          23.9936   45.0015   20.1612 C.2     1  UNL1        0.0000
   8769 C          28.3268   31.8999   19.3643 C.ar    1  UNL1        0.0000
   8770 C          34.3954   38.1657   18.4584 C.3     1  UNL1        0.0000
   8771 C          17.9645   38.9079   21.1148 C.ar    1  UNL1        0.0000
   8772 C          32.5774   36.3833   13.2519 C.ar    1  UNL1        0.0000
   8773 C          26.1077   48.1749   13.2769 C.2     1  UNL1        0.0000
   8774 C          35.0619   42.1464   13.1259 C.2     1  UNL1        0.0000
   8775 C          21.7035   43.6888   13.1065 C.ar    1  UNL1        0.0000
   8776 C          27.3117   40.2118   18.8117 C.3     1  UNL1        0.0000
   8777 C          22.5556   33.1174   20.7299 C.3     1  UNL1        0.0000
   8778 C          32.4416   37.8381   13.2287 C.3     1  UNL1        0.0000
   8779 C          26.0149   46.7414   13.2395 C.2     1  UNL1        0.0000
   8780 C          33.7640   41.5296   13.1728 C.2     1  UNL1        0.0000
   8781 C          23.1058   44.1032   13.1310 C.3     1  UNL1        0.0000
   8782 C          32.6168   35.7142   14.4816 C.ar    1  UNL1        0.0000
   8783 C          21.4699   41.8145   25.1346 C.3     1  UNL1        0.0000
   8784 C          35.7172   42.4212   14.3599 C.3     1  UNL1        0.0000
   8785 C          16.4358   36.3931   24.9731 C.ar    1  UNL1        0.0000
   8786 C          31.1215   35.3487   24.9876 C.3     1  UNL1        0.0000
   8787 C          21.0063   43.4584   14.3190 C.ar    1  UNL1        0.0000
   8788 C          27.9593   28.5768   25.1367 C.ar    1  UNL1        0.0000
   8789 C          26.1215   48.9261   14.5062 C.3     1  UNL1        0.0000
   8790 N          26.1765   48.3272   15.7444 N.3     1  UNL1        0.0000
   8791 N          30.5425   35.1659   23.7486 N.3     1  UNL1        0.0000
   8792 N          31.9320   39.5859   20.8718 N.3     1  UNL1        0.0000
   8793 N          30.0350   30.8493   22.5187 N.pl3   1  UNL1        0.0000
   8794 O          31.1893   39.8741   18.3047 O.2     1  UNL1        0.0000
   8795 O          20.7656   36.6396   21.1948 O.3     1  UNL1        0.0000
   8796 O          28.0158   32.5066   22.9166 O.3     1  UNL1        0.0000
   8797 O          24.5630   44.9552   16.6069 O.3     1  UNL1        0.0000
   8798 O          25.3994   43.5683   18.1930 O.3     1  UNL1        0.0000
   8799 O          26.4639   32.7506   21.2899 O.3     1  UNL1        0.0000
   8800 O          32.7775   39.5498   16.7271 O.2     1  UNL1        0.0000
   8801 O          19.9546   38.0267   22.7928 O.3     1  UNL1        0.0000
   8802 O          30.1050   39.2949   15.7281 O.3     1  UNL1        0.0000
   8803 O          22.4588   37.1535   23.2932 O.3     1  UNL1        0.0000
   8804 O          31.0438   41.5822   16.1781 O.3     1  UNL1        0.0000
   8805 O          20.7066   35.4288   23.7859 O.3     1  UNL1        0.0000
   8806 O          25.3131   32.2209   23.8806 O.3     1  UNL1        0.0000
   8807 O          27.0816   44.1163   16.1087 O.3     1  UNL1        0.0000
   8808 O          26.2671   34.4824   23.4164 O.3     1  UNL1        0.0000
   8809 O          25.3753   42.3592   15.5912 O.3     1  UNL1        0.0000
   8810 O          27.6844   31.3667   25.1827 O.3     1  UNL1        0.0000
   8811 O          25.9318   46.0399   14.3347 O.2     1  UNL1        0.0000
   8812 O          28.4865   34.1548   25.1775 O.2     1  UNL1        0.0000
   8813 O          23.6959   44.2042   14.2746 O.3     1  UNL1        0.0000
   8814 O          33.2247   41.2294   14.3208 O.2     1  UNL1        0.0000
   8815 O          19.0704   37.2690   25.1086 O.3     1  UNL1        0.0000
   8816 O          32.4291   38.4751   14.3502 O.3     1  UNL1        0.0000
   8817 O          21.3386   39.0513   25.1899 O.2     1  UNL1        0.0000
   8818 O          28.2968   41.6864   16.2292 O.3     1  UNL1        0.0000
   8819 O          23.5949   34.6826   23.2102 O.3     1  UNL1        0.0000
   8820 O          30.7509   40.4612   13.2964 O.3     1  UNL1        0.0000
   8821 O          26.1833   43.5633   13.1296 O.3     1  UNL1        0.0000
   8822 H          27.3819   36.3745   21.4705 H       1  UNL1        0.0000
   8823 H          23.4827   30.6867   20.0179 H       1  UNL1        0.0000
   8824 H          28.2174   45.4564   18.7146 H      59  UNL59       0.0000
   8825 H          28.5020   38.1321   20.0649 H       1  UNL1        0.0000
   8826 H          23.5861   38.3225   20.8672 H       1  UNL1        0.0000
   8827 H          20.0316   33.2464   19.7837 H       1  UNL1        0.0000
   8828 H          24.9325   36.4763   21.8331 H       1  UNL1        0.0000
   8829 H          24.7128   40.0894   19.4885 H       1  UNL1        0.0000
   8830 H          29.2997   43.2604   18.3230 H      59  UNL59       0.0000
   8831 H          15.6793   43.4531   18.8594 H      59  UNL59       0.0000
   8832 C          26.6712   39.2120   19.7017 C.ar    1  UNL1        0.0000
   8833 C          25.4222   37.2476   21.2399 C.ar    1  UNL1        0.0000
   8834 C          29.8677   44.0652   18.7904 C.2    59  UNL59       0.0000
   8835 C          21.8288   32.0700   19.9674 C.ar    1  UNL1        0.0000
   8836 C          25.2836   39.2753   19.9302 C.ar    1  UNL1        0.0000
   8837 C          26.8059   37.1889   21.0332 C.ar    1  UNL1        0.0000
   8838 C          29.2537   45.3040   19.0126 C.2    59  UNL59       0.0000
   8839 C          22.4466   30.8303   19.7184 C.ar    1  UNL1        0.0000
   8840 C          31.2055   43.8565   19.1457 C.3    59  UNL59       0.0000
   8841 C          20.4911   32.2803   19.5848 C.ar    1  UNL1        0.0000
   8842 C          27.4319   38.1680   20.2588 C.ar    1  UNL1        0.0000
   8843 C          24.6609   38.2889   20.6947 C.ar    1  UNL1        0.0000
   8844 O          28.5521   40.0693   18.5104 O.3     1  UNL1        0.0000
   8845 O          21.9317   34.1954   21.0432 O.3     1  UNL1        0.0000
   8846 O          23.7531   32.8719   21.1190 O.3     1  UNL1        0.0000
   8847 O          26.5890   41.1609   18.3440 O.3     1  UNL1        0.0000
   8848 N          29.7894   45.5773   38.2969 N.pl3  59  UNL59       0.0000
   8849 N          30.2641   44.7979   40.2819 N.pl3  59  UNL59       0.0000
   8850 C          30.4682   44.3822   38.1129 C.2    59  UNL59       0.0000
   8851 C          30.7688   43.8972   39.3595 C.2    59  UNL59       0.0000
   8852 C          31.5653   45.7474   42.1708 C.3    59  UNL59       0.0000
   8853 C          29.2967   46.4619   37.2334 C.3    59  UNL59       0.0000
   8854 C          29.6697   45.8063   39.6168 C.3    59  UNL59       0.0000
   8855 C          30.4788   44.7616   41.7470 C.3    59  UNL59       0.0000
   8856 H          30.7002   43.9862   37.1321 H      59  UNL59       0.0000
   8857 H          31.2870   42.9959   39.6638 H      59  UNL59       0.0000
   8858 H          32.5200   45.5181   41.6806 H      59  UNL59       0.0000
   8859 H          30.1355   46.7459   36.5889 H      59  UNL59       0.0000
   8860 H          31.2874   46.7814   41.9302 H      59  UNL59       0.0000
   8861 H          28.5373   45.9232   36.6549 H      59  UNL59       0.0000
   8862 H          31.7102   45.6791   43.2573 H      59  UNL59       0.0000
   8863 H          30.7651   43.7305   41.9945 H      59  UNL59       0.0000
   8864 H          28.8544   47.3509   37.6936 H      59  UNL59       0.0000
   8865 H          29.1700   46.6553   40.0664 H      59  UNL59       0.0000
   8866 H          29.5110   44.9669   42.2205 H      59  UNL59       0.0000
   8867 TI         16.3225   30.2626   37.5348 Ti      1  UNL1        0.0000
   8868 TI         27.1530   33.1438   28.1700 Ti      1  UNL1        0.0000
   8869 TI         20.4192   26.3264   35.7148 Ti      1  UNL1        0.0000
   8870 TI         21.9304   35.4886   29.9418 Ti      1  UNL1        0.0000
   8871 TI         20.9318   37.1669   28.0374 Ti      1  UNL1        0.0000
   8872 TI         22.3074   26.0721   37.6682 Ti      1  UNL1        0.0000
   8873 TI         17.2717   28.5267   35.6433 Ti      1  UNL1        0.0000
   8874 TI         25.1652   33.4464   30.0174 Ti      1  UNL1        0.0000
   8875 H          16.8244   34.1597   37.3153 H       1  UNL1        0.0000
   8876 H          27.9618   29.2378   28.4906 H       1  UNL1        0.0000
   8877 H          12.3626   29.5060   37.1523 H       1  UNL1        0.0000
   8878 H          30.5351   35.1481   28.3706 H       1  UNL1        0.0000
   8879 H          23.2830   22.0375   37.2822 H       1  UNL1        0.0000
   8880 H          16.8733   36.5770   28.3594 H       1  UNL1        0.0000
   8881 H          21.4263   35.5301   26.1643 H       1  UNL1        0.0000
   8882 H          25.2774   32.9011   26.4700 H       1  UNL1        0.0000
   8883 H          22.8173   25.4050   32.1571 H       1  UNL1        0.0000
   8884 H          20.2069   37.3256   33.5607 H       1  UNL1        0.0000
   8885 H          13.1991   31.9154   35.2874 H       1  UNL1        0.0000
   8886 H          29.9077   31.0595   30.4760 H       1  UNL1        0.0000
   8887 H          15.5002   30.4679   31.9535 H       1  UNL1        0.0000
   8888 H          17.8317   38.9947   30.3906 H       1  UNL1        0.0000
   8889 H          21.3240   40.2697   28.8928 H       1  UNL1        0.0000
   8890 H          27.8039   27.2189   29.6931 H       1  UNL1        0.0000
   8891 H          24.0230   35.1687   28.6031 H       1  UNL1        0.0000
   8892 H          19.3385   28.1748   37.0084 H       1  UNL1        0.0000
   8893 H          26.5421   28.0069   36.0578 H       1  UNL1        0.0000
   8894 H          25.0610   27.5379   36.8052 H       1  UNL1        0.0000
   8895 H          27.1162   32.4406   34.9589 H       1  UNL1        0.0000
   8896 H          26.5465   32.7992   33.3404 H       1  UNL1        0.0000
   8897 H          26.0533   23.0521   35.8678 H       1  UNL1        0.0000
   8898 H          24.7742   24.1527   36.3252 H       1  UNL1        0.0000
   8899 C          27.7310   32.4026   31.0335 C.2     1  UNL1        0.0000
   8900 C          15.3619   30.5240   34.6877 C.3     1  UNL1        0.0000
   8901 C          22.9997   25.3157   34.7901 C.3     1  UNL1        0.0000
   8902 C          19.9943   37.4591   30.9011 C.3     1  UNL1        0.0000
   8903 C          28.6270   31.7983   32.0287 C.2     1  UNL1        0.0000
   8904 C          14.4300   31.1490   33.7107 C.ar    1  UNL1        0.0000
   8905 C          23.9399   24.7014   33.8429 C.ar    1  UNL1        0.0000
   8906 C          19.1044   38.1059   31.9009 C.2     1  UNL1        0.0000
   8907 C          28.3783   31.8732   33.4351 C.3     1  UNL1        0.0000
   8908 C          14.6464   31.0290   32.3227 C.ar    1  UNL1        0.0000
   8909 C          25.0693   23.9411   34.2959 C.ar    1  UNL1        0.0000
   8910 C          18.0097   38.8788   31.4560 C.3     1  UNL1        0.0000
   8911 C          19.3589   37.9351   33.2558 C.2     1  UNL1        0.0000
   8912 C          23.6922   24.8335   32.4590 C.ar    1  UNL1        0.0000
   8913 C          29.7607   31.0993   31.5530 C.3     1  UNL1        0.0000
   8914 C          13.3299   31.8414   34.2094 C.ar    1  UNL1        0.0000
   8915 C          27.9428   29.3169   26.3465 C.ar    1  UNL1        0.0000
   8916 C          21.4730   41.1084   26.3716 C.2     1  UNL1        0.0000
   8917 C          30.4272   35.0800   26.2205 C.2     1  UNL1        0.0000
   8918 C          17.0689   36.6224   26.2012 C.ar    1  UNL1        0.0000
   8919 C          22.6771   33.1454   31.9063 C.3     1  UNL1        0.0000
   8920 C          17.9210   26.0510   33.8245 C.3     1  UNL1        0.0000
   8921 C          27.8069   30.7717   26.3233 C.3     1  UNL1        0.0000
   8922 C          21.3803   39.6749   26.3341 C.2     1  UNL1        0.0000
   8923 C          29.1294   34.4631   26.2674 C.2     1  UNL1        0.0000
   8924 C          18.4712   37.0367   26.2256 C.3     1  UNL1        0.0000
   8925 C          27.9821   28.6477   27.5762 C.ar    1  UNL1        0.0000
   8926 C          16.8353   34.7481   38.2292 C.3     1  UNL1        0.0000
   8927 C          31.0825   35.3548   27.4545 C.3     1  UNL1        0.0000
   8928 C          11.8011   29.3266   38.0677 C.ar    1  UNL1        0.0000
   8929 C          26.4869   28.2823   38.0822 C.3     1  UNL1        0.0000
   8930 C          16.3717   36.3920   27.4136 C.ar    1  UNL1        0.0000
   8931 C          23.3246   21.5104   38.2313 C.ar    1  UNL1        0.0000
   8932 C          21.4868   41.8596   27.6008 C.3     1  UNL1        0.0000
   8933 N          21.5419   41.2608   28.8390 N.3     1  UNL1        0.0000
   8934 N          25.9078   28.0994   36.8432 N.3     1  UNL1        0.0000
   8935 N          27.2974   32.5194   33.9664 N.3     1  UNL1        0.0000
   8936 N          25.4003   23.7828   35.6133 N.pl3   1  UNL1        0.0000
   8937 O          26.5547   32.8077   31.3993 O.2     1  UNL1        0.0000
   8938 O          16.1309   29.5731   34.2895 O.3     1  UNL1        0.0000
   8939 O          23.3811   25.4402   36.0112 O.3     1  UNL1        0.0000
   8940 O          19.9284   37.8887   29.7015 O.3     1  UNL1        0.0000
   8941 O          20.7647   36.5019   31.2876 O.3     1  UNL1        0.0000
   8942 O          21.8293   25.6842   34.3845 O.3     1  UNL1        0.0000
   8943 O          28.1429   32.4834   29.8217 O.2     1  UNL1        0.0000
   8944 O          15.3199   30.9603   35.8874 O.3     1  UNL1        0.0000
   8945 O          25.4704   32.2285   28.8227 O.3     1  UNL1        0.0000
   8946 O          17.8242   30.0871   36.3878 O.3     1  UNL1        0.0000
   8947 O          26.4092   34.5158   29.2727 O.3     1  UNL1        0.0000
   8948 O          16.0720   28.3624   36.8805 O.3     1  UNL1        0.0000
   8949 O          20.6785   25.1545   36.9752 O.3     1  UNL1        0.0000
   8950 O          22.4469   37.0499   29.2033 O.3     1  UNL1        0.0000
   8951 O          21.6324   27.4160   36.5110 O.3     1  UNL1        0.0000
   8952 O          20.7407   35.2928   28.6858 O.3     1  UNL1        0.0000
   8953 O          23.0497   24.3002   38.2773 O.3     1  UNL1        0.0000
   8954 O          21.2972   38.9735   27.4293 O.2     1  UNL1        0.0000
   8955 O          23.8519   27.0884   38.2721 O.2     1  UNL1        0.0000
   8956 O          19.0613   37.1378   27.3692 O.3     1  UNL1        0.0000
   8957 O          28.5900   34.1630   27.4154 O.2     1  UNL1        0.0000
   8958 O          14.4357   30.2026   38.2032 O.3     1  UNL1        0.0000
   8959 O          27.7945   31.4086   27.4448 O.3     1  UNL1        0.0000
   8960 O          16.7039   31.9849   38.2845 O.2     1  UNL1        0.0000
   8961 O          23.6622   34.6199   29.3238 O.3     1  UNL1        0.0000
   8962 O          18.9602   27.6161   36.3048 O.3     1  UNL1        0.0000
   8963 O          26.1163   33.3948   26.3910 O.3     1  UNL1        0.0000
   8964 O          21.5486   36.4969   26.2243 O.3     1  UNL1        0.0000
   8965 H          22.7472   29.3081   34.5652 H       1  UNL1        0.0000
   8966 H          18.8481   23.6203   33.1125 H       1  UNL1        0.0000
   8967 H          23.5828   38.3900   31.8092 H      59  UNL59       0.0000
   8968 H          23.8674   31.0656   33.1596 H       1  UNL1        0.0000
   8969 H          18.9515   31.2560   33.9618 H       1  UNL1        0.0000
   8970 H          15.3970   26.1800   32.8783 H       1  UNL1        0.0000
   8971 H          20.2979   29.4099   34.9277 H       1  UNL1        0.0000
   8972 H          20.0782   33.0230   32.5831 H       1  UNL1        0.0000
   8973 H          24.6651   36.1940   31.4176 H      59  UNL59       0.0000
   8974 H          11.0447   36.3866   31.9540 H      59  UNL59       0.0000
   8975 C          22.0365   32.1455   32.7963 C.ar    1  UNL1        0.0000
   8976 C          20.7875   30.1812   34.3345 C.ar    1  UNL1        0.0000
   8977 C          25.2330   36.9988   31.8850 C.2    59  UNL59       0.0000
   8978 C          17.1942   25.0035   33.0620 C.ar    1  UNL1        0.0000
   8979 C          20.6489   32.2089   33.0249 C.ar    1  UNL1        0.0000
   8980 C          22.1713   30.1225   34.1278 C.ar    1  UNL1        0.0000
   8981 C          24.6191   38.2376   32.1072 C.2    59  UNL59       0.0000
   8982 C          17.8119   23.7639   32.8130 C.ar    1  UNL1        0.0000
   8983 C          26.5708   36.7901   32.2403 C.3    59  UNL59       0.0000
   8984 C          15.8564   25.2139   32.6794 C.ar    1  UNL1        0.0000
   8985 C          22.7972   31.1016   33.3534 C.ar    1  UNL1        0.0000
   8986 C          20.0262   31.2225   33.7893 C.ar    1  UNL1        0.0000
   8987 O          23.9175   33.0028   31.6050 O.3     1  UNL1        0.0000
   8988 O          17.2971   27.1289   34.1378 O.3     1  UNL1        0.0000
   8989 O          19.1184   25.8055   34.2136 O.3     1  UNL1        0.0000
   8990 O          21.9544   34.0944   31.4386 O.3     1  UNL1        0.0000
   8991 N          25.1547   38.5109   51.3915 N.pl3  59  UNL59       0.0000
   8992 N          25.6294   37.7315   53.3766 N.pl3  59  UNL59       0.0000
   8993 C          25.8335   37.3158   51.2075 C.2    59  UNL59       0.0000
   8994 C          26.1341   36.8307   52.4541 C.2    59  UNL59       0.0000
   8995 C          26.9306   38.6810   55.2654 C.3    59  UNL59       0.0000
   8996 C          24.6621   39.3955   50.3280 C.3    59  UNL59       0.0000
   8997 C          25.0351   38.7399   52.7114 C.3    59  UNL59       0.0000
   8998 C          25.8441   37.6951   54.8416 C.3    59  UNL59       0.0000
   8999 H          26.0656   36.9198   50.2267 H      59  UNL59       0.0000
   9000 H          26.6523   35.9294   52.7584 H      59  UNL59       0.0000
   9001 H          27.8853   38.4517   54.7752 H      59  UNL59       0.0000
   9002 H          25.5009   39.6795   49.6836 H      59  UNL59       0.0000
   9003 H          26.6528   39.7150   55.0248 H      59  UNL59       0.0000
   9004 H          23.9027   38.8567   49.7496 H      59  UNL59       0.0000
   9005 H          27.0755   38.6127   56.3519 H      59  UNL59       0.0000
   9006 H          26.1304   36.6641   55.0891 H      59  UNL59       0.0000
   9007 H          24.2198   40.2845   50.7882 H      59  UNL59       0.0000
   9008 H          24.5353   39.5889   53.1610 H      59  UNL59       0.0000
   9009 H          24.8763   37.9005   55.3151 H      59  UNL59       0.0000
   9010 TI         11.6878   23.1962   50.6294 Ti      1  UNL1        0.0000
   9011 TI         22.5183   26.0774   41.2646 Ti      1  UNL1        0.0000
   9012 TI         15.7845   19.2600   48.8094 Ti      1  UNL1        0.0000
   9013 TI         17.2957   28.4221   43.0364 Ti      1  UNL1        0.0000
   9014 TI         16.2972   30.1004   41.1320 Ti      1  UNL1        0.0000
   9015 TI         17.6727   19.0056   50.7628 Ti      1  UNL1        0.0000
   9016 TI         12.6370   21.4603   48.7379 Ti      1  UNL1        0.0000
   9017 TI         20.5305   26.3800   43.1120 Ti      1  UNL1        0.0000
   9018 H          12.1897   27.0933   50.4099 H      59  UNL59       0.0000
   9019 H          23.3271   22.1713   41.5853 H       1  UNL1        0.0000
   9020 H           7.7279   22.4396   50.2469 H      59  UNL59       0.0000
   9021 H          25.9005   28.0817   41.4652 H       1  UNL1        0.0000
   9022 H          18.6483   14.9711   50.3768 H      59  UNL59       0.0000
   9023 H          12.2386   29.5105   41.4540 H       1  UNL1        0.0000
   9024 H          16.7916   28.4636   39.2589 H       1  UNL1        0.0000
   9025 H          20.6428   25.8347   39.5646 H       1  UNL1        0.0000
   9026 H          18.1826   18.3385   45.2517 H       1  UNL1        0.0000
   9027 H          15.5723   30.2591   46.6553 H       1  UNL1        0.0000
   9028 H           8.5644   24.8489   48.3820 H       1  UNL1        0.0000
   9029 H          25.2731   23.9931   43.5706 H       1  UNL1        0.0000
   9030 H          10.8655   23.4015   45.0482 H       1  UNL1        0.0000
   9031 H          13.1971   31.9283   43.4852 H       1  UNL1        0.0000
   9032 H          16.6894   33.2033   41.9874 H       1  UNL1        0.0000
   9033 H          23.1693   20.1525   42.7877 H       1  UNL1        0.0000
   9034 H          19.3884   28.1023   41.6977 H       1  UNL1        0.0000
   9035 H          14.7038   21.1084   50.1030 H       1  UNL1        0.0000
   9036 H          21.9075   20.9405   49.1524 H      59  UNL59       0.0000
   9037 H          20.4264   20.4714   49.8998 H      59  UNL59       0.0000
   9038 H          22.4816   25.3741   48.0535 H       1  UNL1        0.0000
   9039 H          21.9119   25.7327   46.4350 H       1  UNL1        0.0000
   9040 H          21.4187   15.9857   48.9624 H       1  UNL1        0.0000
   9041 H          20.1395   17.0862   49.4198 H       1  UNL1        0.0000
   9042 C          23.0964   25.3362   44.1281 C.2     1  UNL1        0.0000
   9043 C          10.7273   23.4576   47.7823 C.3     1  UNL1        0.0000
   9044 C          18.3650   18.2493   47.8847 C.3     1  UNL1        0.0000
   9045 C          15.3596   30.3926   43.9957 C.3     1  UNL1        0.0000
   9046 C          23.9924   24.7318   45.1233 C.2     1  UNL1        0.0000
   9047 C           9.7954   24.0826   46.8053 C.ar    1  UNL1        0.0000
   9048 C          19.3052   17.6349   46.9375 C.ar    1  UNL1        0.0000
   9049 C          14.4698   31.0394   44.9955 C.2     1  UNL1        0.0000
   9050 C          23.7436   24.8068   46.5297 C.3     1  UNL1        0.0000
   9051 C          10.0118   23.9626   45.4173 C.ar    1  UNL1        0.0000
   9052 C          20.4347   16.8746   47.3905 C.ar    1  UNL1        0.0000
   9053 C          13.3751   31.8124   44.5506 C.3     1  UNL1        0.0000
   9054 C          14.7243   30.8687   46.3504 C.2     1  UNL1        0.0000
   9055 C          19.0575   17.7671   45.5536 C.ar    1  UNL1        0.0000
   9056 C          25.1261   24.0329   44.6476 C.3     1  UNL1        0.0000
   9057 C           8.6952   24.7750   47.3040 C.ar    1  UNL1        0.0000
   9058 C          23.3081   22.2504   39.4412 C.ar    1  UNL1        0.0000
   9059 C          16.8384   34.0420   39.4662 C.2     1  UNL1        0.0000
   9060 C          25.7926   28.0135   39.3152 C.2     1  UNL1        0.0000
   9061 C          12.4342   29.5560   39.2958 C.ar    1  UNL1        0.0000
   9062 C          18.0424   26.0789   45.0010 C.3     1  UNL1        0.0000
   9063 C          13.2864   18.9846   46.9191 C.3     1  UNL1        0.0000
   9064 C          23.1723   23.7053   39.4180 C.3     1  UNL1        0.0000
   9065 C          16.7456   32.6085   39.4287 C.2     1  UNL1        0.0000
   9066 C          24.4947   27.3967   39.3620 C.2     1  UNL1        0.0000
   9067 C          13.8365   29.9703   39.3202 C.3     1  UNL1        0.0000
   9068 C          23.3475   21.5813   40.6708 C.ar    1  UNL1        0.0000
   9069 C          12.2007   27.6817   51.3238 C.3    72  UNL72       0.0000
   9070 C          26.4479   28.2883   40.5491 C.3     1  UNL1        0.0000
   9071 C           7.1665   22.2602   51.1623 C.2    59  UNL59       0.0000
   9072 C          21.8522   21.2158   51.1768 C.3    59  UNL59       0.0000
   9073 C          11.7370   29.3255   40.5082 C.ar    1  UNL1        0.0000
   9074 C          18.6900   14.4439   51.3259 C.2    59  UNL59       0.0000
   9075 C          16.8522   34.7932   40.6954 C.3     1  UNL1        0.0000
   9076 N          16.9072   34.1944   41.9336 N.3     1  UNL1        0.0000
   9077 N          21.2732   21.0330   49.9378 N.3    59  UNL59       0.0000
   9078 N          22.6627   25.4530   47.0610 N.3     1  UNL1        0.0000
   9079 N          20.7657   16.7164   48.7079 N.pl3   1  UNL1        0.0000
   9080 O          21.9200   25.7413   44.4939 O.2     1  UNL1        0.0000
   9081 O          11.4963   22.5067   47.3841 O.3     1  UNL1        0.0000
   9082 O          18.7465   18.3738   49.1058 O.3     1  UNL1        0.0000
   9083 O          15.2937   30.8223   42.7961 O.3     1  UNL1        0.0000
   9084 O          16.1301   29.4354   44.3822 O.3     1  UNL1        0.0000
   9085 O          17.1946   18.6177   47.4792 O.3     1  UNL1        0.0000
   9086 O          23.5082   25.4169   42.9163 O.2     1  UNL1        0.0000
   9087 O          10.6853   23.8938   48.9821 O.3     1  UNL1        0.0000
   9088 O          20.8357   25.1620   41.9173 O.3     1  UNL1        0.0000
   9089 O          13.1895   23.0207   49.4824 O.3     1  UNL1        0.0000
   9090 O          21.7745   27.4493   42.3673 O.3     1  UNL1        0.0000
   9091 O          11.4373   21.2960   49.9751 O.3     1  UNL1        0.0000
   9092 O          16.0438   18.0880   50.0698 O.3     1  UNL1        0.0000
   9093 O          17.8123   29.9834   42.2979 O.3     1  UNL1        0.0000
   9094 O          16.9978   20.3495   49.6056 O.3     1  UNL1        0.0000
   9095 O          16.1060   28.2263   41.7805 O.3     1  UNL1        0.0000
   9096 O          18.4151   17.2338   51.3719 O.3     1  UNL1        0.0000
   9097 O          16.6625   31.9071   40.5239 O.2     1  UNL1        0.0000
   9098 O          19.2172   20.0220   51.3667 O.3     1  UNL1        0.0000
   9099 O          14.4266   30.0713   40.4638 O.3     1  UNL1        0.0000
   9100 O          23.9554   27.0965   40.5100 O.2     1  UNL1        0.0000
   9101 O           9.8011   23.1361   51.2978 O.3     1  UNL1        0.0000
   9102 O          23.1598   24.3422   40.5394 O.3     1  UNL1        0.0000
   9103 O          12.0693   24.9185   51.3791 O.3     1  UNL1        0.0000
   9104 O          19.0275   27.5535   42.4184 O.3     1  UNL1        0.0000
   9105 O          14.3256   20.5497   49.3994 O.3     1  UNL1        0.0000
   9106 O          21.4816   26.3284   39.4856 O.3     1  UNL1        0.0000
   9107 O          16.9140   29.4304   39.3189 O.3     1  UNL1        0.0000
   9108 H          18.1126   22.2416   47.6598 H       1  UNL1        0.0000
   9109 H          14.2134   16.5538   46.2072 H       1  UNL1        0.0000
   9110 H          18.9481   31.3235   44.9038 H      59  UNL59       0.0000
   9111 H          19.2327   23.9992   46.2542 H       1  UNL1        0.0000
   9112 H          14.3168   24.1896   47.0564 H       1  UNL1        0.0000
   9113 H          10.7623   19.1135   45.9729 H       1  UNL1        0.0000
   9114 H          15.6632   22.3434   48.0223 H       1  UNL1        0.0000
   9115 H          15.4436   25.9566   45.6777 H       1  UNL1        0.0000
   9116 H          20.0304   29.1275   44.5122 H      59  UNL59       0.0000
   9117 H           6.4100   29.3202   45.0486 H      59  UNL59       0.0000
   9118 C          17.4019   25.0791   45.8909 C.ar    1  UNL1        0.0000
   9119 C          16.1529   23.1147   47.4291 C.ar    1  UNL1        0.0000
   9120 C          20.5984   29.9324   44.9796 C.2    59  UNL59       0.0000
   9121 C          12.5595   17.9371   46.1566 C.ar    1  UNL1        0.0000
   9122 C          16.0143   25.1425   46.1195 C.ar    1  UNL1        0.0000
   9123 C          17.5366   23.0560   47.2224 C.ar    1  UNL1        0.0000
   9124 C          19.9844   31.1711   45.2018 C.2    59  UNL59       0.0000
   9125 C          13.1773   16.6974   45.9076 C.ar    1  UNL1        0.0000
   9126 C          21.9362   29.7236   45.3349 C.3    59  UNL59       0.0000
   9127 C          11.2218   18.1474   45.7740 C.ar    1  UNL1        0.0000
   9128 C          18.1626   24.0351   46.4480 C.ar    1  UNL1        0.0000
   9129 C          15.3916   24.1560   46.8839 C.ar    1  UNL1        0.0000
   9130 O          19.2828   25.9364   44.6996 O.3     1  UNL1        0.0000
   9131 O          12.6625   20.0625   47.2324 O.3     1  UNL1        0.0000
   9132 O          14.4838   18.7391   47.3082 O.3     1  UNL1        0.0000
   9133 O          17.3197   27.0280   44.5332 O.3     1  UNL1        0.0000
   9134 N          20.5201   31.4445   64.4861 N.pl3  59  UNL59       0.0000
   9135 N          20.9948   30.6650   66.4712 N.pl3  59  UNL59       0.0000
   9136 C          21.1989   30.2493   64.3021 C.2    59  UNL59       0.0000
   9137 C          21.4995   29.7643   65.5487 C.2    59  UNL59       0.0000
   9138 C          22.2960   31.6145   68.3600 C.3    59  UNL59       0.0000
   9139 C          20.0275   32.3291   63.4226 C.3    59  UNL59       0.0000
   9140 C          20.4004   31.6734   65.8060 C.3    59  UNL59       0.0000
   9141 C          21.2095   30.6287   67.9362 C.3    59  UNL59       0.0000
   9142 H          21.4309   29.8533   63.3213 H      59  UNL59       0.0000
   9143 H          22.0177   28.8630   65.8530 H      59  UNL59       0.0000
   9144 H          23.2507   31.3852   67.8698 H      59  UNL59       0.0000
   9145 H          20.8662   32.6131   62.7782 H      59  UNL59       0.0000
   9146 H          22.0181   32.6485   68.1194 H      59  UNL59       0.0000
   9147 H          19.2680   31.7903   62.8442 H      59  UNL59       0.0000
   9148 H          22.4409   31.5462   69.4465 H      59  UNL59       0.0000
   9149 H          21.4958   29.5976   68.1837 H      59  UNL59       0.0000
   9150 H          19.5852   33.2181   63.8828 H      59  UNL59       0.0000
   9151 H          19.9007   32.5224   66.2556 H      59  UNL59       0.0000
   9152 H          20.2417   30.8340   68.4097 H      59  UNL59       0.0000
@<TRIPOS>BOND
     1  1731  1814    1
     2  1768  1774    2
     3  1768  1780    1
     4  1767  1773    2
     5  1767  1777    1
     6  1159  1242    1
     7  1814  1721    1
     8  1774  1806    1
     9  4019  4102    1
    10  1196  1202    2
    11  1196  1208    1
    12  1773  1807    1
    13  1195  1201    2
    14  1195  1205    1
    15   587   670    1
    16  1242  1149    1
    17  1202  1234    1
    18  4056  4062    2
    19  4056  4068    1
    20  4055  4061    2
    21  4055  4065    1
    22  3447  3530    1
    23  4102  4009    1
    24   624   630    2
    25   624   636    1
    26  4062  4094    1
    27  1771  1765    2
    28  1771  1809    1
    29  1201  1235    1
    30   623   629    2
    31   623   633    1
    32    15    98    1
    33  1772  1766    2
    34  1772  1804    1
    35   670   577    1
    36   630   662    1
    37  6307  6390    1
    38  1765  1775    1
    39  3484  3490    2
    40  3484  3496    1
    41  4061  4095    1
    42  3483  3489    2
    43  3483  3493    1
    44  2875  2958    1
    45  3530  3437    1
    46    52    58    2
    47    52    64    1
    48  1766  1782    1
    49  3490  3522    1
    50  1199  1193    2
    51  1199  1237    1
    52  6344  6350    2
    53  6344  6356    1
    54   629   663    1
    55    51    57    2
    56    51    61    1
    57  1200  1194    2
    58  1200  1232    1
    59  1813  1732    1
    60  1813  1718    1
    61    98     5    1
    62    58    90    1
    63  6343  6349    2
    64  6343  6353    1
    65  5735  5818    1
    66  1193  1203    1
    67  6390  6297    1
    68  2912  2918    2
    69  2912  2924    1
    70  6350  6382    1
    71  4059  4053    2
    72  4059  4097    1
    73  3489  3523    1
    74  2911  2917    2
    75  2911  2921    1
    76  2303  2386    1
    77  4060  4054    2
    78  4060  4092    1
    79  2958  2865    1
    80  1194  1210    1
    81  2918  2950    1
    82  8595  8678    1
    83  4053  4063    1
    84   627   621    2
    85   627   665    1
    86  5772  5778    2
    87  5772  5784    1
    88    57    91    1
    89  6349  6383    1
    90   628   622    2
    91   628   660    1
    92  1241  1160    1
    93  1241  1146    1
    94  5771  5777    2
    95  5771  5781    1
    96  5163  5246    1
    97   621   631    1
    98  5818  5725    1
    99  2340  2346    2
   100  2340  2352    1
   101  4054  4070    1
   102  5778  5810    1
   103  3487  3481    2
   104  3487  3525    1
   105  8632  8638    2
   106  8632  8644    1
   107  2917  2951    1
   108  2339  2345    2
   109  2339  2349    1
   110  3488  3482    2
   111  3488  3520    1
   112  4101  4020    1
   113  4101  4006    1
   114  2386  2293    1
   115   622   638    1
   116  2346  2378    1
   117  8631  8637    2
   118  8631  8641    1
   119  8023  8106    1
   120  3481  3491    1
   121    55    49    2
   122    55    93    1
   123  8678  8585    1
   124  5200  5206    2
   125  5200  5212    1
   126  8638  8670    1
   127  6347  6341    2
   128  6347  6385    1
   129  5777  5811    1
   130    56    50    2
   131    56    88    1
   132   669   588    1
   133   669   574    1
   134  5199  5205    2
   135  5199  5209    1
   136  4591  4674    1
   137  6348  6342    2
   138  6348  6380    1
   139    49    59    1
   140  5246  5153    1
   141  3482  3498    1
   142  5206  5238    1
   143  6341  6351    1
   144  2915  2909    2
   145  2915  2953    1
   146  8060  8066    2
   147  8060  8072    1
   148  2345  2379    1
   149  8637  8671    1
   150  2916  2910    2
   151  2916  2948    1
   152  3529  3448    1
   153  3529  3434    1
   154    50    66    1
   155  8059  8065    2
   156  8059  8069    1
   157  7451  7534    1
   158  2909  2919    1
   159  8106  8013    1
   160  4628  4634    2
   161  4628  4640    1
   162  6342  6358    1
   163  8066  8098    1
   164  5775  5769    2
   165  5775  5813    1
   166  5205  5239    1
   167    97    16    1
   168    97     2    1
   169  4627  4633    2
   170  4627  4637    1
   171  5776  5770    2
   172  5776  5808    1
   173  6389  6308    1
   174  6389  6294    1
   175  4674  4581    1
   176  2910  2926    1
   177  4634  4666    1
   178  5769  5779    1
   179  2343  2337    2
   180  2343  2381    1
   181  7488  7494    2
   182  7488  7500    1
   183  8635  8629    2
   184  8635  8673    1
   185  8065  8099    1
   186  2344  2338    2
   187  2344  2376    1
   188  2957  2876    1
   189  2957  2862    1
   190  7487  7493    2
   191  7487  7497    1
   192  6879  6962    1
   193  8636  8630    2
   194  8636  8668    1
   195  2337  2347    1
   196  7534  7441    1
   197  5770  5786    1
   198  7494  7526    1
   199  8629  8639    1
   200  5203  5197    2
   201  5203  5241    1
   202  4633  4667    1
   203  5204  5198    2
   204  5204  5236    1
   205  5817  5736    1
   206  5817  5722    1
   207  2338  2354    1
   208  5197  5207    1
   209  6916  6922    2
   210  6916  6928    1
   211  8630  8646    1
   212  8063  8057    2
   213  8063  8101    1
   214  7493  7527    1
   215  2385  2304    1
   216  2385  2290    1
   217  6915  6921    2
   218  6915  6925    1
   219  8064  8058    2
   220  8064  8096    1
   221  8677  8596    1
   222  8677  8582    1
   223  6962  6869    1
   224  5198  5214    1
   225  6922  6954    1
   226  8057  8067    1
   227  4631  4625    2
   228  4631  4669    1
   229  4632  4626    2
   230  4632  4664    1
   231  5245  5164    1
   232  5245  5150    1
   233  4625  4635    1
   234  8058  8074    1
   235  7491  7485    2
   236  7491  7529    1
   237  6921  6955    1
   238  7492  7486    2
   239  7492  7524    1
   240  8105  8024    1
   241  8105  8010    1
   242  4626  4642    1
   243  7485  7495    1
   244  4673  4592    1
   245  4673  4578    1
   246  7486  7502    1
   247  6919  6913    2
   248  6919  6957    1
   249  6920  6914    2
   250  6920  6952    1
   251  7533  7452    1
   252  7533  7438    1
   253  6913  6923    1
   254  6914  6930    1
   255  6961  6880    1
   256  6961  6866    1
   257  1806  1721    1
   258  1780  1730    1
   259  1807  1718    1
   260  1234  1149    1
   261  1804  1721    1
   262  1809  1718    1
   263  1777  4068    2
   264  1777  1728    1
   265  4094  4009    1
   266  1208  1158    1
   267  1235  1146    1
   268   662   577    1
   269  1232  1149    1
   270  1237  1146    1
   271  4068  4018    1
   272  4095  4006    1
   273  1205  3496    2
   274  1205  1156    1
   275  3522  3437    1
   276  4092  4009    1
   277   636   586    1
   278   663   574    1
   279  4097  4006    1
   280    90     5    1
   281   660   577    1
   282  4065  6356    2
   283  4065  4016    1
   284  6382  6297    1
   285   665   574    1
   286  3496  3446    1
   287  3523  3434    1
   288   633  2924    2
   289   633   584    1
   290  2950  2865    1
   291  3520  3437    1
   292  1775  1210    2
   293  1775  1726    1
   294    64    14    1
   295    91     2    1
   296  3525  3434    1
   297  6356  6306    1
   298  6383  6294    1
   299    88     5    1
   300  3493  5784    2
   301  3493  3444    1
   302  1782  1783    1
   303  5810  5725    1
   304  6380  6297    1
   305    93     2    1
   306  2924  2874    1
   307  2951  2862    1
   308  6385  6294    1
   309    61  2352    2
   310    61    12    1
   311  2378  2293    1
   312  2948  2865    1
   313  1203   638    2
   314  1203  1154    1
   315  6353  8644    2
   316  6353  6304    1
   317  8670  8585    1
   318  2953  2862    1
   319  5784  5734    1
   320  5811  5722    1
   321  2921  5212    2
   322  2921  2872    1
   323  1210  1211    1
   324  5238  5153    1
   325  5808  5725    1
   326  4063  3498    2
   327  4063  4014    1
   328  2352  2302    1
   329  2379  2290    1
   330  5813  5722    1
   331  8644  8594    1
   332  8671  8582    1
   333  2376  2293    1
   334   631    66    2
   335   631   582    1
   336  5781  8072    2
   337  5781  5732    1
   338  4070  4071    1
   339  8098  8013    1
   340  8668  8585    1
   341  2381  2290    1
   342  5212  5162    1
   343  5239  5150    1
   344  8673  8582    1
   345  2349  4640    2
   346  2349  2300    1
   347   638   639    1
   348  4666  4581    1
   349  5236  5153    1
   350  3491  2926    2
   351  3491  3442    1
   352  8641  8592    1
   353  5241  5150    1
   354  8072  8022    1
   355  8099  8010    1
   356    59    10    1
   357  5209  7500    2
   358  5209  5160    1
   359  3498  3499    1
   360  7526  7441    1
   361  8096  8013    1
   362  6351  5786    2
   363  6351  6302    1
   364  4640  4590    1
   365  4667  4578    1
   366  8101  8010    1
   367    66    67    1
   368  4664  4581    1
   369  2919  2354    2
   370  2919  2870    1
   371  8069  8020    1
   372  6358  6359    1
   373  4669  4578    1
   374  7500  7450    1
   375  7527  7438    1
   376  4637  6928    2
   377  4637  4588    1
   378  2926  2927    1
   379  6954  6869    1
   380  7524  7441    1
   381  5779  5214    2
   382  5779  5730    1
   383  7529  7438    1
   384  2347  2298    1
   385  7497  7448    1
   386  5786  5787    1
   387  8639  8074    2
   388  8639  8590    1
   389  6928  6878    1
   390  6955  6866    1
   391  2354  2355    1
   392  6952  6869    1
   393  5207  4642    2
   394  5207  5158    1
   395  8646  8647    1
   396  6957  6866    1
   397  6925  6876    1
   398  5214  5215    1
   399  8067  7502    2
   400  8067  8018    1
   401  4635  4586    1
   402  8074  8075    1
   403  4642  4643    1
   404  7495  6930    2
   405  7495  7446    1
   406  7502  7503    1
   407  6923  6874    1
   408  1721  1802    1
   409  1721  1800    1
   410  1721  1790    1
   411  6930  6931    1
   412  1149  1230    1
   413  1149  1228    1
   414  1149  1218    1
   415  4009  4090    1
   416  4009  4088    1
   417  4009  4078    1
   418   577   658    1
   419   577   656    1
   420   577   646    1
   421  1718  1795    1
   422  1718  1797    1
   423  1718  1793    1
   424  3437  3518    1
   425  3437  3516    1
   426  3437  3506    1
   427     5    86    1
   428     5    84    1
   429     5    74    1
   430  6297  6378    1
   431  6297  6376    1
   432  6297  6366    1
   433  1146  1223    1
   434  1146  1225    1
   435  1146  1221    1
   436  2865  2946    1
   437  2865  2944    1
   438  2865  2934    1
   439  4006  4083    1
   440  4006  4085    1
   441  4006  4081    1
   442  5725  5806    1
   443  5725  5804    1
   444  5725  5794    1
   445   574   651    1
   446   574   653    1
   447   574   649    1
   448  2293  2374    1
   449  2293  2372    1
   450  2293  2362    1
   451  8585  8666    1
   452  8585  8664    1
   453  8585  8654    1
   454  3434  3511    1
   455  3434  3513    1
   456  3434  3509    1
   457  5153  5234    1
   458  5153  5232    1
   459  5153  5222    1
   460     2    79    1
   461     2    81    1
   462     2    77    1
   463  6294  6371    1
   464  6294  6373    1
   465  6294  6369    1
   466  8013  8094    1
   467  8013  8092    1
   468  8013  8082    1
   469  2862  2939    1
   470  2862  2941    1
   471  2862  2937    1
   472  4581  4662    1
   473  4581  4660    1
   474  4581  4650    1
   475  5722  5799    1
   476  5722  5801    1
   477  5722  5797    1
   478  7441  7522    1
   479  7441  7520    1
   480  7441  7510    1
   481  2290  2367    1
   482  2290  2369    1
   483  2290  2365    1
   484  8582  8659    1
   485  8582  8661    1
   486  8582  8657    1
   487  5150  5227    1
   488  5150  5229    1
   489  5150  5225    1
   490  6869  6950    1
   491  6869  6948    1
   492  6869  6938    1
   493  8010  8087    1
   494  8010  8089    1
   495  8010  8085    1
   496  4578  4655    1
   497  4578  4657    1
   498  4578  4653    1
   499  7438  7515    1
   500  7438  7517    1
   501  7438  7513    1
   502  1741  1811    1
   503  6866  6943    1
   504  6866  6945    1
   505  6866  6941    1
   506  1169  1239    1
   507  1802  1720    1
   508  4029  4099    1
   509   597   667    1
   510  1230  1148    1
   511  3457  3527    1
   512    25    95    1
   513  4090  4008    1
   514  6317  6387    1
   515   658   576    1
   516  2885  2955    1
   517  1795  1724    1
   518  3518  3436    1
   519  5745  5815    1
   520  1783  1739    1
   521    86     4    1
   522  2313  2383    1
   523  6378  6296    1
   524  8605  8675    1
   525  1223  1152    1
   526  2946  2864    1
   527  5173  5243    1
   528  1211  1167    1
   529  1211  1740    1
   530  4083  4012    1
   531  5806  5724    1
   532  8033  8103    1
   533  4071  4027    1
   534   651   580    1
   535  2374  2292    1
   536  4601  4671    1
   537   639   595    1
   538   639  1168    1
   539  8666  8584    1
   540  3511  3440    1
   541  5234  5152    1
   542  7461  7531    1
   543  3499  3455    1
   544  3499  4028    1
   545    79     8    1
   546  6371  6300    1
   547    67    23    1
   548    67   596    1
   549  8094  8012    1
   550  6359  6315    1
   551  2939  2868    1
   552  4662  4580    1
   553  6889  6959    1
   554  2927  2883    1
   555  2927  3456    1
   556  5799  5728    1
   557  7522  7440    1
   558  5787  5743    1
   559  5787  6316    1
   560  2367  2296    1
   561  8659  8588    1
   562  2355  2311    1
   563  2355  2884    1
   564  8647  8603    1
   565  5227  5156    1
   566  6950  6868    1
   567  5215  5171    1
   568  5215  5744    1
   569  8087  8016    1
   570  8075  8031    1
   571  8075  8604    1
   572  4655  4584    1
   573  4643  4599    1
   574  4643  5172    1
   575  1800  1720    1
   576  7515  7444    1
   577  7503  7459    1
   578  7503  8032    1
   579  1228  1148    1
   580  6943  6872    1
   581  1797  1724    1
   582  6931  6887    1
   583  6931  7460    1
   584  4088  4008    1
   585   656   576    1
   586  1811  1724    1
   587  1225  1152    1
   588  3516  3436    1
   589  4085  4012    1
   590    84     4    1
   591  1239  1152    1
   592  6376  6296    1
   593   653   580    1
   594  2944  2864    1
   595  4099  4012    1
   596  3513  3440    1
   597   667   580    1
   598  5804  5724    1
   599    81     8    1
   600  6373  6300    1
   601  2372  2292    1
   602  3527  3440    1
   603  8664  8584    1
   604  2941  2868    1
   605    95     8    1
   606  5232  5152    1
   607  6387  6300    1
   608  5801  5728    1
   609  2955  2868    1
   610  8092  8012    1
   611  2369  2296    1
   612  8661  8588    1
   613  4660  4580    1
   614  5815  5728    1
   615  5229  5156    1
   616  2383  2296    1
   617  7520  7440    1
   618  8675  8588    1
   619  8089  8016    1
   620  5243  5156    1
   621  4657  4584    1
   622  6948  6868    1
   623  8103  8016    1
   624  7517  7444    1
   625  4671  4584    1
   626  1790  1752    1
   627  7531  7444    1
   628  6945  6872    1
   629  1218  1180    1
   630  6959  6872    1
   631  4078  4040    1
   632   646   608    1
   633  1793  1749    1
   634  3506  3468    1
   635    74    36    1
   636  1221  1177    1
   637  6366  6328    1
   638  2934  2896    1
   639  4081  4037    1
   640   649   605    1
   641  5794  5756    1
   642  1720  1791    1
   643  1720  1840    1
   644  2362  2324    1
   645  3509  3465    1
   646  8654  8616    1
   647    77    33    1
   648  5222  5184    1
   649  1148  1219    1
   650  1148  1268    1
   651  6369  6325    1
   652  1724  1787    1
   653  1724  1837    1
   654  2937  2893    1
   655  8082  8044    1
   656  4008  4079    1
   657  4008  4128    1
   658  4650  4612    1
   659   576   647    1
   660   576   696    1
   661  5797  5753    1
   662  1152  1215    1
   663  1152  1265    1
   664  2365  2321    1
   665  7510  7472    1
   666  3436  3507    1
   667  3436  3556    1
   668  8657  8613    1
   669  4012  4075    1
   670  4012  4125    1
   671     4    75    1
   672     4   124    1
   673  5225  5181    1
   674  6296  6367    1
   675  6296  6416    1
   676   580   643    1
   677   580   693    1
   678  6938  6900    1
   679  2864  2935    1
   680  2864  2984    1
   681  8085  8041    1
   682  3440  3503    1
   683  3440  3553    1
   684  4653  4609    1
   685  5724  5795    1
   686  5724  5844    1
   687     8    71    1
   688     8   121    1
   689  6300  6363    1
   690  6300  6413    1
   691  2292  2363    1
   692  2292  2412    1
   693  7513  7469    1
   694  8584  8655    1
   695  8584  8704    1
   696  2868  2931    1
   697  2868  2981    1
   698  5152  5223    1
   699  5152  5272    1
   700  5728  5791    1
   701  5728  5841    1
   702  6941  6897    1
   703  8012  8083    1
   704  8012  8132    1
   705  2296  2359    1
   706  2296  2409    1
   707  8588  8651    1
   708  8588  8701    1
   709  4580  4651    1
   710  4580  4700    1
   711  5156  5219    1
   712  5156  5269    1
   713  7440  7511    1
   714  7440  7560    1
   715  8016  8079    1
   716  8016  8129    1
   717  4584  4647    1
   718  4584  4697    1
   719  6868  6939    1
   720  6868  6988    1
   721  1738  1760    1
   722  7444  7507    1
   723  7444  7557    1
   724  1166  1188    1
   725  6872  6935    1
   726  6872  6985    1
   727  1736  1763    1
   728  4026  4048    1
   729   594   616    1
   730  1164  1191    1
   731  3454  3476    1
   732    22    44    1
   733  4024  4051    1
   734  6314  6336    1
   735   592   619    1
   736  2882  2904    1
   737  3452  3479    1
   738  5742  5764    1
   739    20    47    1
   740  2310  2332    1
   741  6312  6339    1
   742  8602  8624    1
   743  2880  2907    1
   744  5170  5192    1
   745  5740  5767    1
   746  8030  8052    1
   747  2308  2335    1
   748  4598  4620    1
   749  8600  8627    1
   750  5168  5195    1
   751  7458  7480    1
   752  8028  8055    1
   753  4596  4623    1
   754  6886  6908    1
   755  7456  7483    1
   756  1752  1791    1
   757  1752  1756    1
   758  6884  6911    1
   759  1180  1219    1
   760  1180  1184    1
   761  4040  4079    1
   762  4040  4044    1
   763   608   647    1
   764   608   612    1
   765  1749  1787    1
   766  1749  1753    1
   767  3468  3507    1
   768  3468  3472    1
   769    36    75    1
   770    36    40    1
   771  6328  6367    1
   772  6328  6332    1
   773  1177  1215    1
   774  1177  1181    1
   775  2896  2935    1
   776  2896  2900    1
   777  4037  4075    1
   778  4037  4041    1
   779  5756  5795    1
   780  5756  5760    1
   781   605   643    1
   782   605   609    1
   783  2324  2363    1
   784  2324  2328    1
   785  8616  8655    1
   786  8616  8620    1
   787  3465  3503    1
   788  3465  3469    1
   789  5184  5223    1
   790  5184  5188    1
   791    33    71    1
   792    33    37    1
   793  6325  6363    1
   794  6325  6329    1
   795  8044  8083    1
   796  8044  8048    1
   797  2893  2931    1
   798  2893  2897    1
   799  4612  4651    1
   800  4612  4616    1
   801  5753  5791    1
   802  5753  5757    1
   803  7472  7511    1
   804  7472  7476    1
   805  2321  2359    1
   806  2321  2325    1
   807  8613  8651    1
   808  8613  8617    2
   809  5181  5219    1
   810  5181  5185    1
   811  6900  6939    1
   812  6900  6904    1
   813  8041  8079    1
   814  8041  8045    2
   815  4609  4647    1
   816  4609  4613    1
   817  7469  7507    1
   818  7469  7473    2
   819  1823  1827    1
   820  1840  1769    1
   821  1760  1756    1
   822  6897  6935    1
   823  6897  6901    2
   824  1251  1255    1
   825  1268  1197    1
   826  4111  4115    1
   827  1188  1184   ar
   828  1188  1762   ar
   829  4128  4057    1
   830   679   683    1
   831  4048  4044    1
   832   696   625    1
   833  1763  1753   ar
   834  1763  4046   ar
   835  3539  3543    1
   836   616   612   ar
   837   616  1190   ar
   838  3556  3485    1
   839   107   111    1
   840  6399  6403    1
   841  3476  3472   ar
   842  3476  4050   ar
   843  1837  1769    1
   844   124    53    1
   845  1191  1181   ar
   846  1191  3474   ar
   847  6416  6345    1
   848  2967  2971    1
   849    44    40   ar
   850    44   618   ar
   851  6336  6332    1
   852  2984  2913    1
   853  4051  4041   ar
   854  4051  6334   ar
   855  5827  5831    1
   856  2904  2900   ar
   857  2904  3478   ar
   858  1265  1197    1
   859   619   609   ar
   860   619  2902   ar
   861  5844  5773    1
   862  2395  2399    1
   863  8687  8691    1
   864  5764  5760   ar
   865  5764  6338   ar
   866  4125  4057    1
   867  2412  2341    1
   868  3479  3469   ar
   869  3479  5762   ar
   870  8704  8633    1
   871  5255  5259    1
   872  2332  2328   ar
   873  2332  2906   ar
   874   693   625    1
   875    47    37   ar
   876    47  2330   ar
   877  8624  8620    1
   878  5272  5201    1
   879  6339  6329   ar
   880  6339  8622   ar
   881  8115  8119    1
   882  5192  5188   ar
   883  5192  5766   ar
   884  3553  3485    1
   885  2907  2897   ar
   886  2907  5190   ar
   887  8132  8061    1
   888  4683  4687    1
   889   121    53    1
   890  8052  8048   ar
   891  8052  8626   ar
   892  6413  6345    1
   893  4700  4629    1
   894  5767  5757   ar
   895  5767  8050   ar
   896  7543  7547    1
   897  4620  4616   ar
   898  4620  5194   ar
   899  2981  2913    1
   900  1817  1831    1
   901  2335  2325   ar
   902  2335  4618   ar
   903  7560  7489    1
   904  8627  8617    1
   905  7480  7476   ar
   906  7480  8054   ar
   907  5841  5773    1
   908  5195  5185   ar
   909  5195  7478   ar
   910  6971  6975    1
   911  2409  2341    1
   912  1245  1259    1
   913  8701  8633    1
   914  6988  6917    1
   915  8055  8045    1
   916  1827  1831    1
   917  1827  1833    2
   918  6908  6904   ar
   919  6908  7482   ar
   920  5269  5201    1
   921  4105  4119    1
   922  1756  1761    2
   923  4623  4613   ar
   924  4623  6906   ar
   925  1769  1825    1
   926   673   687    1
   927  8129  8061    1
   928  7483  7473    1
   929  1255  1259   ar
   930  1255  1261   ar
   931  1737  1758    1
   932  4697  4629    1
   933  3533  3547    1
   934  1184  1189   ar
   935  1197  1253    1
   936  4115  4119    1
   937  4115  4121    2
   938   101   115    1
   939  7557  7489    1
   940  6393  6407    1
   941  4044  4049    2
   942  6911  6901    1
   943  4057  4113    1
   944   683   687   ar
   945   683   689   ar
   946  1165  1186    1
   947  2961  2975    1
   948   612   617   ar
   949   625   681    1
   950  1753  1757   ar
   951  3543  3547   ar
   952  3543  3549   ar
   953  4025  4046    1
   954  6985  6917    1
   955  4112  1833    1
   956  5821  5835    1
   957  3472  3477   ar
   958  3485  3541    1
   959   111   115   ar
   960   111   117   ar
   961  6403  6407    1
   962  6403  6409    2
   963   593   614    1
   964  2389  2403    1
   965    40    45   ar
   966    53   109    1
   967  8681  8695    1
   968  6332  6337    2
   969  1181  1185   ar
   970  6345  6401    1
   971  2971  2975   ar
   972  2971  2977   ar
   973  3453  3474    1
   974  3540  1261    1
   975  5249  5263    1
   976  2900  2905   ar
   977  2913  2969    1
   978  4041  4045   ar
   979  5831  5835   ar
   980  5831  5837   ar
   981    21    42    1
   982  6313  6334    1
   983  6400  4121    1
   984  8109  8123    1
   985  5760  5765   ar
   986   609   613   ar
   987  5773  5829    1
   988  2399  2403   ar
   989  2399  2405   ar
   990  8691  8695    2
   991  8691  8697    1
   992  2881  2902    1
   993  2968   689    1
   994  1733  1762    1
   995  4677  4691    1
   996  2328  2333   ar
   997  1259  4122   ar
   998  2341  2397    1
   999  8620  8625    2
  1000  3469  3473   ar
  1001  8633  8689    1
  1002  5259  5263   ar
  1003  5259  5265   ar
  1004  5741  5762    1
  1005  5828  3549    1
  1006  7537  7551    1
  1007  5188  5193   ar
  1008    37    41   ar
  1009  5201  5257    1
  1010  6329  6333   ar
  1011  8119  8123    2
  1012  8119  8125    1
  1013  2309  2330    1
  1014  2396   117    1
  1015  1161  1190    1
  1016   687  3550   ar
  1017  8601  8622    1
  1018  8688  6409    1
  1019  8048  8053   ar
  1020  2897  2901   ar
  1021  8061  8117    1
  1022  4687  4691   ar
  1023  4687  4693   ar
  1024  5169  5190    1
  1025  5256  2977    1
  1026  4021  4050    1
  1027  6965  6979    1
  1028  4616  4621   ar
  1029  3547  6410   ar
  1030  4629  4685    1
  1031  5757  5761   ar
  1032  7547  7551    2
  1033  7547  7553    1
  1034   589   618    1
  1035   115  2978   ar
  1036  8029  8050    1
  1037  8116  5837    1
  1038  7476  7481   ar
  1039  2325  2329   ar
  1040  7489  7545    1
  1041  1261  4120   ar
  1042  8617  8621    1
  1043  4597  4618    1
  1044  4684  2405    1
  1045  3449  3478    1
  1046  2975  5838   ar
  1047  5185  5189   ar
  1048  1758  1754    1
  1049  6975  6979    2
  1050  6975  6981    1
  1051    17    46    1
  1052  7457  7478    1
  1053  7544  5265    1
  1054  6309  6338    1
  1055  6904  6909   ar
  1056  5835  8698   ar
  1057  6917  6973    1
  1058   689  3548   ar
  1059  8045  8049    1
  1060  2877  2906    1
  1061  2403  5266   ar
  1062  4613  4617   ar
  1063  1186  1182    1
  1064  3549  6408   ar
  1065  6885  6906    1
  1066  6972  4693    1
  1067  5737  5766    1
  1068  5263  8126   ar
  1069   117  2976   ar
  1070  7473  7477    1
  1071  4046  4042   ar
  1072  2305  2334    1
  1073  8597  8626    1
  1074   614   610    1
  1075  2977  5836   ar
  1076  5165  5194    1
  1077  4691  7554   ar
  1078  1762  1755   ar
  1079  6901  6905    1
  1080  3474  3470   ar
  1081  5837  8696   ar
  1082  8025  8054    1
  1083    42    38    1
  1084  2405  5264   ar
  1085  6334  6330   ar
  1086  4593  4622    1
  1087  1190  1183   ar
  1088  2902  2898   ar
  1089  5265  8124   ar
  1090  7453  7482    1
  1091  4050  4043   ar
  1092  5762  5758   ar
  1093   618   611   ar
  1094  2330  2326   ar
  1095  1822  1829    1
  1096  4693  7552   ar
  1097  8622  8618   ar
  1098  6881  6910    1
  1099  3478  3471   ar
  1100  5190  5186   ar
  1101    46    39    1
  1102  6338  6331   ar
  1103  1250  1257    1
  1104  8050  8046   ar
  1105  2906  2899   ar
  1106  4618  4614   ar
  1107  4110  4117    1
  1108  1834  1820    1
  1109  1834  1828    1
  1110  5766  5759   ar
  1111   678   685    1
  1112  7478  7474   ar
  1113  2334  2327    1
  1114  8626  8619   ar
  1115  3538  3545    1
  1116  1262  1248    1
  1117  1262  1256    1
  1118  5194  5187   ar
  1119   106   113    1
  1120  6906  6902   ar
  1121  6398  6405    1
  1122  4122  4108    1
  1123  4122  4116   ar
  1124  8054  8047   ar
  1125  2966  2973    1
  1126   690   676    1
  1127   690   684    1
  1128  1825  1829   ar
  1129  1825  1835   ar
  1130  4622  4615    1
  1131  1832  1828    1
  1132  1832  1816    1
  1133  5826  5833    1
  1134  3550  3536    1
  1135  3550  3544   ar
  1136  7482  7475   ar
  1137  2394  2401    1
  1138   118   104    1
  1139   118   112    1
  1140  8686  8693    1
  1141  1253  1257   ar
  1142  1253  1263   ar
  1143  6410  6396    1
  1144  6410  6404   ar
  1145  1260  1256    1
  1146  1260  1244    1
  1147  5254  5261    1
  1148  2978  2964    1
  1149  2978  2972   ar
  1150  4113  4117   ar
  1151  4113  4123   ar
  1152  6910  6903    1
  1153  4120  4116   ar
  1154  4120  4104    1
  1155  8114  8121    1
  1156   681   685   ar
  1157   681   691   ar
  1158  5838  5824    1
  1159  5838  5832   ar
  1160   688   684    1
  1161   688   672    1
  1162  4682  4689    1
  1163  2406  2392    1
  1164  2406  2400    1
  1165  3541  3545   ar
  1166  3541  3551   ar
  1167  8698  8684    1
  1168  8698  8692   ar
  1169  3548  3544   ar
  1170  3548  3532    1
  1171  7542  7549    1
  1172   109   113   ar
  1173   109   119   ar
  1174  5266  5252    1
  1175  5266  5260   ar
  1176  6401  6405   ar
  1177  6401  6411   ar
  1178   116   112    1
  1179   116   100    1
  1180  6408  6404   ar
  1181  6408  6392    1
  1182  2969  2973   ar
  1183  2969  2979   ar
  1184  8126  8112    1
  1185  8126  8120   ar
  1186  2976  2972   ar
  1187  2976  2960    1
  1188  6970  6977    1
  1189  1829  1836   ar
  1190  4694  4680    1
  1191  4694  4688    1
  1192  5829  5833   ar
  1193  5829  5839   ar
  1194  5836  5832   ar
  1195  5836  5820    1
  1196  2397  2401   ar
  1197  2397  2407   ar
  1198  7554  7540    1
  1199  7554  7548   ar
  1200  1828  1770    2
  1201  8689  8693   ar
  1202  8689  8699   ar
  1203  2404  2400    1
  1204  2404  2388    1
  1205  1257  1264   ar
  1206  8696  8692   ar
  1207  8696  8680    1
  1208  5257  5261   ar
  1209  5257  5267   ar
  1210  5264  5260   ar
  1211  5264  5248    1
  1212  4117  4124   ar
  1213  6982  6968    1
  1214  6982  6976    1
  1215  1256  1198    2
  1216  8117  8121   ar
  1217  8117  8127   ar
  1218   685   692   ar
  1219  8124  8120   ar
  1220  8124  8108    1
  1221  4685  4689   ar
  1222  4685  4695   ar
  1223  4116  4058    1
  1224  1818  1835    1
  1225  4692  4688    1
  1226  4692  4676    1
  1227  3545  3552   ar
  1228   684   626    2
  1229  7545  7549   ar
  1230  7545  7555   ar
  1231   113   120   ar
  1232  7552  7548   ar
  1233  7552  7536    1
  1234  6405  6412   ar
  1235  3544  3486    1
  1236  1246  1263    1
  1237  2973  2980   ar
  1238   112    54    2
  1239  6973  6977   ar
  1240  6973  6983   ar
  1241  6404  6346    1
  1242  4106  4123    1
  1243  6980  6976    1
  1244  6980  6964    1
  1245  1761  1734    1
  1246  5833  5840   ar
  1247  2972  2914    1
  1248   674   691    1
  1249  2401  2408   ar
  1250  8693  8700   ar
  1251  5832  5774    1
  1252  3534  3551    1
  1253  1189  1162    1
  1254  1189  1759   ar
  1255  5261  5268   ar
  1256  2400  2342    2
  1257   102   119    1
  1258  8692  8634    1
  1259  6394  6411    1
  1260  1746  1785    1
  1261  4049  4022    1
  1262  8121  8128   ar
  1263  1835  1830   ar
  1264  5260  5202    1
  1265  2962  2979    1
  1266   617   590    1
  1267   617  1187   ar
  1268  4689  4696   ar
  1269  8120  8062    1
  1270  5822  5839    1
  1271  1174  1213    1
  1272  3477  3450    1
  1273  3477  4047   ar
  1274  7549  7556   ar
  1275  1263  1258   ar
  1276  4688  4630    2
  1277  2390  2407    1
  1278    45    18    1
  1279    45   615   ar
  1280  8682  8699    1
  1281  4034  4073    1
  1282  6337  6310    1
  1283  1757  1785    1
  1284  1757  4052   ar
  1285  4123  4118   ar
  1286  7548  7490    1
  1287  5250  5267    1
  1288   602   641    1
  1289  2905  2878    1
  1290  2905  3475   ar
  1291  6977  6984   ar
  1292   691   686   ar
  1293  8110  8127    1
  1294  3462  3501    1
  1295  5765  5738    1
  1296  5765  6335   ar
  1297  1185  1213    1
  1298  1185  3480   ar
  1299  3551  3546   ar
  1300  6976  6918    2
  1301  4678  4695    1
  1302    30    69    1
  1303  2333  2306    1
  1304  2333  2903   ar
  1305  6322  6361    1
  1306   119   114   ar
  1307  8625  8598    1
  1308  4045  4073    1
  1309  4045  6340   ar
  1310  6411  6406   ar
  1311  7538  7555    1
  1312  2890  2929    1
  1313  5193  5166    1
  1314  5193  5763   ar
  1315   613   641    1
  1316   613  2908   ar
  1317  2979  2974   ar
  1318  5750  5789    1
  1319  8053  8026    1
  1320  8053  8623   ar
  1321  3473  3501    1
  1322  3473  5768   ar
  1323  5839  5834   ar
  1324  6966  6983    1
  1325  2318  2357    1
  1326  4621  4594    1
  1327  4621  5191   ar
  1328    41    69    1
  1329    41  2336   ar
  1330  8610  8649    1
  1331  2407  2402   ar
  1332  6333  6361    1
  1333  6333  8628   ar
  1334  8699  8694   ar
  1335  5178  5217    1
  1336  7481  7454    1
  1337  7481  8051   ar
  1338  2901  2929    1
  1339  2901  5196   ar
  1340  5267  5262   ar
  1341  8038  8077    1
  1342  5761  5789    1
  1343  5761  8056   ar
  1344  8127  8122   ar
  1345  4606  4645    1
  1346  6909  6882    1
  1347  6909  7479   ar
  1348  2329  2357    1
  1349  2329  4624   ar
  1350  4695  4690   ar
  1351  8621  8649    1
  1352  1754  1764    2
  1353  1754  1750    1
  1354  7466  7505    1
  1355  5189  5217    1
  1356  5189  7484   ar
  1357  7555  7550   ar
  1358  8049  8077    1
  1359  1182  1192    2
  1360  1182  1178    1
  1361  6894  6933    1
  1362  4617  4645    1
  1363  4617  6912   ar
  1364  1836  1819    1
  1365  1836  1826   ar
  1366  6983  6978   ar
  1367  4042  4052   ar
  1368  4042  4038    1
  1369  7477  7505    1
  1370   610   620    2
  1371   610   606    1
  1372  1770  1838    1
  1373  1770  1839    1
  1374  1755  1759   ar
  1375  1755  1751    1
  1376  1264  1247    1
  1377  1264  1254   ar
  1378  3470  3480   ar
  1379  3470  3466    1
  1380  6905  6933    1
  1381  4124  4107    1
  1382  4124  4114   ar
  1383    38    48    2
  1384    38    34    1
  1385  1198  1266    1
  1386  1198  1267    1
  1387  6330  6340   ar
  1388  6330  6326    1
  1389  1183  1187   ar
  1390  1183  1179    1
  1391   692   675    1
  1392   692   682   ar
  1393  2898  2908   ar
  1394  2898  2894    1
  1395  4058  4126    1
  1396  4058  4127    1
  1397  4043  4047   ar
  1398  4043  4039    1
  1399  3552  3535    1
  1400  3552  3542   ar
  1401   626   694    1
  1402   626   695    1
  1403  5758  5768   ar
  1404  5758  5754    1
  1405   611   615   ar
  1406   611   607    1
  1407   120   103    1
  1408   120   110   ar
  1409  1785  1745    1
  1410  6412  6395    1
  1411  6412  6402   ar
  1412  2326  2336   ar
  1413  2326  2322    1
  1414  3486  3554    1
  1415  3486  3555    1
  1416  8618  8628   ar
  1417  8618  8614    1
  1418  3471  3475   ar
  1419  3471  3467    1
  1420  2980  2963    1
  1421  2980  2970   ar
  1422    54   122    1
  1423    54   123    1
  1424  5186  5196   ar
  1425  5186  5182    1
  1426  6346  6414    1
  1427  6346  6415    1
  1428    39    43    2
  1429    39    35    1
  1430  6331  6335   ar
  1431  6331  6327    1
  1432  1213  1173    1
  1433  5840  5823    1
  1434  5840  5830   ar
  1435  2914  2982    1
  1436  2914  2983    1
  1437  8046  8056   ar
  1438  8046  8042    1
  1439  2899  2903   ar
  1440  2899  2895    1
  1441  2408  2391    1
  1442  2408  2398   ar
  1443  4073  4033    1
  1444  8700  8683    1
  1445  8700  8690   ar
  1446  4614  4624   ar
  1447  4614  4610    1
  1448  5774  5842    1
  1449  5774  5843    1
  1450  5759  5763   ar
  1451  5759  5755    1
  1452   641   601    1
  1453  5268  5251    1
  1454  5268  5258   ar
  1455  2342  2410    1
  1456  2342  2411    1
  1457  7474  7484   ar
  1458  7474  7470    1
  1459  8634  8702    1
  1460  8634  8703    1
  1461  2327  2331    2
  1462  2327  2323    1
  1463  8619  8623   ar
  1464  8619  8615    1
  1465  3501  3461    1
  1466  8128  8111    1
  1467  8128  8118   ar
  1468  5202  5270    1
  1469  5202  5271    1
  1470  1830  1826   ar
  1471  1830  1815    1
  1472  5187  5191   ar
  1473  5187  5183    1
  1474    69    29    1
  1475  1838  1723    1
  1476  4696  4679    1
  1477  4696  4686   ar
  1478  6361  6321    1
  1479  6902  6912   ar
  1480  6902  6898    1
  1481  8062  8130    1
  1482  8062  8131    1
  1483  8047  8051   ar
  1484  8047  8043    1
  1485  2929  2889    1
  1486  7556  7539    1
  1487  7556  7546   ar
  1488  4630  4698    1
  1489  4630  4699    1
  1490  1258  1254   ar
  1491  1258  1243    1
  1492  4615  4619    2
  1493  4615  4611    1
  1494  1266  1151    1
  1495  5789  5749    1
  1496  7490  7558    1
  1497  7490  7559    1
  1498  1764  1735    1
  1499  1839  1719    1
  1500  4118  4114   ar
  1501  4118  4103    1
  1502  7475  7479   ar
  1503  7475  7471    1
  1504  2357  2317    1
  1505  4126  4011    1
  1506  6984  6967    1
  1507  6984  6974   ar
  1508  8649  8609    1
  1509   686   682   ar
  1510   686   671    1
  1511   694   579    1
  1512  5217  5177    1
  1513  6918  6986    1
  1514  6918  6987    1
  1515  1192  1163    1
  1516  1267  1147    1
  1517  3546  3542   ar
  1518  3546  3531    1
  1519  6903  6907    2
  1520  6903  6899    1
  1521  3554  3439    1
  1522  1788  1750    1
  1523  1788  1723    1
  1524  8077  8037    1
  1525  1759  1786    1
  1526   114   110   ar
  1527   114    99    1
  1528  4052  4023    1
  1529  4127  4007    1
  1530  6406  6402   ar
  1531  6406  6391    1
  1532   122     7    1
  1533  4645  4605    1
  1534  6414  6299    1
  1535   620   591    1
  1536   695   575    1
  1537  2974  2970   ar
  1538  2974  2959    1
  1539  1826  1821    1
  1540  2982  2867    1
  1541  1216  1178    1
  1542  1216  1151    1
  1543  7505  7465    1
  1544  1187  1214    1
  1545  3480  3451    1
  1546  3555  3435    1
  1547  5834  5830   ar
  1548  5834  5819    1
  1549  5842  5727    1
  1550    48    19    1
  1551  4076  4038    1
  1552  4076  4011    1
  1553   123     3    1
  1554  1792  1751    1
  1555  1792  1719    1
  1556  4047  4074    1
  1557  2402  2398   ar
  1558  2402  2387    1
  1559  6340  6311    1
  1560  1254  1249    1
  1561  6415  6295    1
  1562  8694  8690   ar
  1563  8694  8679    1
  1564  2410  2295    1
  1565   644   606    1
  1566   644   579    1
  1567  6933  6893    1
  1568  8702  8587    1
  1569   615   642    1
  1570  2908  2879    1
  1571  2983  2863    1
  1572  5262  5258   ar
  1573  5262  5247    1
  1574  4114  4109    1
  1575  5270  5155    1
  1576  3504  3466    1
  1577  3504  3439    1
  1578  1220  1179    1
  1579  1220  1147    1
  1580  3475  3502    1
  1581  5768  5739    1
  1582   682   677    1
  1583  5843  5723    1
  1584  8122  8118   ar
  1585  8122  8107    1
  1586    72    34    1
  1587    72     7    1
  1588  8130  8015    1
  1589    43    70    1
  1590  2336  2307    1
  1591  6364  6326    1
  1592  6364  6299    1
  1593  2411  2291    1
  1594  4080  4039    1
  1595  4080  4007    1
  1596  6335  6362    1
  1597  4690  4686   ar
  1598  4690  4675    1
  1599  8628  8599    1
  1600  3542  3537    1
  1601  8703  8583    1
  1602  4698  4583    1
  1603  2932  2894    1
  1604  2932  2867    1
  1605   648   607    1
  1606   648   575    1
  1607  2903  2930    1
  1608  5196  5167    1
  1609   110   105    1
  1610  5271  5151    1
  1611  7550  7546   ar
  1612  7550  7535    1
  1613  6402  6397    1
  1614  7558  7443    1
  1615  5792  5754    1
  1616  5792  5727    1
  1617  3508  3467    1
  1618  3508  3435    1
  1619  5763  5790    1
  1620  8056  8027    1
  1621  2970  2965    1
  1622  8131  8011    1
  1623  2360  2322    1
  1624  2360  2295    1
  1625    76    35    1
  1626    76     3    1
  1627  2331  2358    1
  1628  4624  4595    1
  1629  8652  8614    1
  1630  8652  8587    1
  1631  4699  4579    1
  1632  6368  6327    1
  1633  6368  6295    1
  1634  8623  8650    1
  1635  6978  6974   ar
  1636  6978  6963    1
  1637  5830  5825    1
  1638  6986  6871    1
  1639  5220  5182    1
  1640  5220  5155    1
  1641  2936  2895    1
  1642  2936  2863    1
  1643  5191  5218    1
  1644  7484  7455    1
  1645  2398  2393    1
  1646  7559  7439    1
  1647  8690  8685    1
  1648  8080  8042    1
  1649  8080  8015    1
  1650  5796  5755    1
  1651  5796  5723    1
  1652  8051  8078    1
  1653  5258  5253    1
  1654  4648  4610    1
  1655  4648  4583    1
  1656  2364  2323    1
  1657  2364  2291    1
  1658  4619  4646    1
  1659  6912  6883    1
  1660  6987  6867    1
  1661  8656  8615    1
  1662  8656  8583    1
  1663  8118  8113    1
  1664  7508  7470    1
  1665  7508  7443    1
  1666  5224  5183    1
  1667  5224  5151    1
  1668  7479  7506    1
  1669  4686  4681    1
  1670  1750  1794    1
  1671  8084  8043    1
  1672  8084  8011    1
  1673  7546  7541    1
  1674  6936  6898    1
  1675  6936  6871    1
  1676  4652  4611    1
  1677  4652  4579    1
  1678  6907  6934    1
  1679  1178  1222    1
  1680  7512  7471    1
  1681  7512  7439    1
  1682  6974  6969    1
  1683  4038  4082    1
  1684  1751  1789    1
  1685   606   650    1
  1686  6940  6899    1
  1687  6940  6867    1
  1688  3466  3510    1
  1689  1179  1217    1
  1690    34    78    1
  1691  6326  6370    1
  1692  4039  4077    1
  1693  2894  2938    1
  1694   607   645    1
  1695  5754  5798    1
  1696  3467  3505    1
  1697  2322  2366    1
  1698  8614  8658    1
  1699    35    73    1
  1700  6327  6365    1
  1701  5182  5226    1
  1702  2895  2933    1
  1703  8042  8086    1
  1704  5755  5793    1
  1705  4610  4654    1
  1706  2323  2361    1
  1707  8615  8653    1
  1708  7470  7514    1
  1709  5183  5221    1
  1710  8043  8081    1
  1711  6898  6942    1
  1712  4611  4649    1
  1713  7471  7509    1
  1714  6899  6937    1
  1715  1786  1747    1
  1716  1786  1748    1
  1717  1723  1812    1
  1718  1723  1796    1
  1719  1723  1798    1
  1720  1214  1175    1
  1721  1214  1176    1
  1722  1151  1240    1
  1723  1151  1224    1
  1724  1151  1226    1
  1725  4074  4035    1
  1726  4074  4036    1
  1727  1719  1801    1
  1728  1719  1799    1
  1729   642   603    1
  1730   642   604    1
  1731  4011  4100    1
  1732  4011  4084    1
  1733  4011  4086    1
  1734   579   668    1
  1735   579   652    1
  1736   579   654    1
  1737  3502  3463    1
  1738  3502  3464    1
  1739  1147  1229    1
  1740  1147  1227    1
  1741    70    31    1
  1742    70    32    1
  1743  3439  3528    1
  1744  3439  3512    1
  1745  3439  3514    1
  1746  6362  6323    1
  1747  6362  6324    1
  1748  4007  4089    1
  1749  4007  4087    1
  1750     7    96    1
  1751     7    80    1
  1752     7    82    1
  1753  2930  2891    1
  1754  2930  2892    1
  1755  6299  6388    1
  1756  6299  6372    1
  1757  6299  6374    1
  1758   575   657    1
  1759   575   655    1
  1760  2867  2956    1
  1761  2867  2940    1
  1762  2867  2942    1
  1763  5790  5751    1
  1764  5790  5752    1
  1765  3435  3517    1
  1766  3435  3515    1
  1767  2358  2319    1
  1768  2358  2320    1
  1769  5727  5816    1
  1770  5727  5800    1
  1771  5727  5802    1
  1772  8650  8611    1
  1773  8650  8612    1
  1774     3    85    1
  1775     3    83    1
  1776  1794  1717    1
  1777  6295  6377    1
  1778  6295  6375    1
  1779  2295  2384    1
  1780  2295  2368    1
  1781  2295  2370    1
  1782  5218  5179    1
  1783  5218  5180    1
  1784  8587  8676    1
  1785  8587  8660    1
  1786  8587  8662    1
  1787  2863  2945    1
  1788  2863  2943    1
  1789  5155  5244    1
  1790  5155  5228    1
  1791  5155  5230    1
  1792  8078  8039    1
  1793  8078  8040    1
  1794  1222  1145    1
  1795  5723  5805    1
  1796  5723  5803    1
  1797  4646  4607    1
  1798  4646  4608    1
  1799  8015  8104    1
  1800  8015  8088    1
  1801  8015  8090    1
  1802  2291  2373    1
  1803  2291  2371    1
  1804  4082  4005    1
  1805  8583  8665    1
  1806  8583  8663    1
  1807  4583  4672    1
  1808  4583  4656    1
  1809  4583  4658    1
  1810  7506  7467    1
  1811  7506  7468    1
  1812   650   573    1
  1813  5151  5233    1
  1814  5151  5231    1
  1815  1789  1722    1
  1816  7443  7532    1
  1817  7443  7516    1
  1818  7443  7518    1
  1819  3510  3433    1
  1820  8011  8093    1
  1821  8011  8091    1
  1822  6934  6895    1
  1823  6934  6896    1
  1824    78     1    1
  1825  1743  1784    1
  1826  4579  4661    1
  1827  4579  4659    1
  1828  6370  6293    1
  1829  1217  1150    1
  1830  6871  6960    1
  1831  6871  6944    1
  1832  6871  6946    1
  1833  2938  2861    1
  1834  7439  7521    1
  1835  7439  7519    1
  1836  4077  4010    1
  1837  1171  1212    1
  1838  5798  5721    1
  1839   645   578    1
  1840  2366  2289    1
  1841  4031  4072    1
  1842  6867  6949    1
  1843  6867  6947    1
  1844  8658  8581    1
  1845  3505  3438    1
  1846   599   640    1
  1847  5226  5149    1
  1848    73     6    1
  1849  6365  6298    1
  1850  3459  3500    1
  1851  8086  8009    1
  1852  2933  2866    1
  1853    27    68    1
  1854  4654  4577    1
  1855  6319  6360    1
  1856  5793  5726    1
  1857  2887  2928    1
  1858  7514  7437    1
  1859  2361  2294    1
  1860  8653  8586    1
  1861  5747  5788    1
  1862  5221  5154    1
  1863  1812  1742    1
  1864  2315  2356    1
  1865  6942  6865    1
  1866  8607  8648    1
  1867  8081  8014    1
  1868  5175  5216    1
  1869  4649  4582    1
  1870  1240  1170    1
  1871  8035  8076    1
  1872  1796  1717    1
  1873  7509  7442    1
  1874  4100  4030    1
  1875  4603  4644    1
  1876   668   598    1
  1877  7463  7504    1
  1878  1224  1145    1
  1879  6937  6870    1
  1880  3528  3458    1
  1881    96    26    1
  1882  4084  4005    1
  1883  6388  6318    1
  1884  6891  6932    1
  1885   652   573    1
  1886  2956  2886    1
  1887  1801  1722    1
  1888  3512  3433    1
  1889  5816  5746    1
  1890    80     1    1
  1891  2384  2314    1
  1892  6372  6293    1
  1893  1229  1150    1
  1894  8676  8606    1
  1895  2940  2861    1
  1896  5244  5174    1
  1897  4089  4010    1
  1898  5800  5721    1
  1899   657   578    1
  1900  8104  8034    1
  1901  2368  2289    1
  1902  4672  4602    1
  1903  8660  8581    1
  1904  3517  3438    1
  1905  5228  5149    1
  1906    85     6    1
  1907  7532  7462    1
  1908  6377  6298    1
  1909  8088  8009    1
  1910  2945  2866    1
  1911  4656  4577    1
  1912  6960  6890    1
  1913  5805  5726    1
  1914  7516  7437    1
  1915  2373  2294    1
  1916  8665  8586    1
  1917  5233  5154    1
  1918  1744  1784    1
  1919  6944  6865    1
  1920  8093  8014    1
  1921  1784  1779    1
  1922  4661  4582    1
  1923  1172  1212    1
  1924  1798  1717    1
  1925  7521  7442    1
  1926  4032  4072    1
  1927  1212  1207    1
  1928   600   640    1
  1929  4072  4067    1
  1930  1226  1145    1
  1931  6949  6870    1
  1932  3460  3500    1
  1933   640   635    1
  1934  4086  4005    1
  1935    28    68    1
  1936  1799  1722    1
  1937  6320  6360    1
  1938  3500  3495    1
  1939   654   573    1
  1940  2888  2928    1
  1941    68    63    1
  1942  6360  6355    1
  1943  3514  3433    1
  1944  1227  1150    1
  1945  5748  5788    1
  1946  2928  2923    1
  1947    82     1    1
  1948  6374  6293    1
  1949  2316  2356    1
  1950  4087  4010    1
  1951  8608  8648    1
  1952  5788  5783    1
  1953  2942  2861    1
  1954   655   578    1
  1955  5176  5216    1
  1956  2356  2351    1
  1957  8648  8643    1
  1958  5802  5721    1
  1959  3515  3438    1
  1960  8036  8076    1
  1961  5216  5211    1
  1962  2370  2289    1
  1963    83     6    1
  1964  8662  8581    1
  1965  1727  1778    1
  1966  4604  4644    1
  1967  6375  6298    1
  1968  8076  8071    1
  1969  5230  5149    1
  1970  2943  2866    1
  1971  7464  7504    1
  1972  4644  4639    1
  1973  8090  8009    1
  1974  1155  1206    1
  1975  5803  5726    1
  1976  7504  7499    1
  1977  4658  4577    1
  1978  2371  2294    1
  1979  4015  4066    1
  1980  6892  6932    1
  1981  8663  8586    1
  1982  7518  7437    1
  1983   583   634    1
  1984  5231  5154    1
  1985  6932  6927    1
  1986  1729  1781    1
  1987  3443  3494    1
  1988  8091  8014    1
  1989  1725  1776    1
  1990  6946  6865    1
  1991    11    62    1
  1992  4659  4582    1
  1993  6303  6354    1
  1994  1157  1209    1
  1995  2871  2922    1
  1996  7519  7442    1
  1997  4017  4069    1
  1998  1153  1204    1
  1999  5731  5782    1
  2000   585   637    1
  2001  4013  4064    1
  2002  2299  2350    1
  2003  6947  6870    1
  2004  8591  8642    1
  2005  3445  3497    1
  2006   581   632    1
  2007  5159  5210    1
  2008    13    65    1
  2009  6305  6357    1
  2010  3441  3492    1
  2011  8019  8070    1
  2012  2873  2925    1
  2013     9    60    1
  2014  6301  6352    1
  2015  4587  4638    1
  2016  5733  5785    1
  2017  2869  2920    1
  2018  7447  7498    1
  2019  1717  1808    1
  2020  1717  1810    1
  2021  2301  2353    1
  2022  8593  8645    1
  2023  5729  5780    1
  2024  5161  5213    1
  2025  2297  2348    1
  2026  8589  8640    1
  2027  6875  6926    1
  2028  1145  1236    1
  2029  1145  1238    1
  2030  8021  8073    1
  2031  5157  5208    1
  2032  4005  4096    1
  2033  4005  4098    1
  2034  4589  4641    1
  2035  8017  8068    1
  2036   573   664    1
  2037   573   666    1
  2038  7449  7501    1
  2039  4585  4636    1
  2040  1722  1805    1
  2041  1722  1803    1
  2042  1722  1956    1
  2043  3433  3524    1
  2044  3433  3526    1
  2045  7445  7496    1
  2046     1    92    1
  2047     1    94    1
  2048  6293  6384    1
  2049  6293  6386    1
  2050  6877  6929    1
  2051  1150  1233    1
  2052  1150  1231    1
  2053  1150  1384    1
  2054  2861  2952    1
  2055  2861  2954    1
  2056  6873  6924    1
  2057  4010  4093    1
  2058  4010  4091    1
  2059  4010  4244    1
  2060  5721  5812    1
  2061  5721  5814    1
  2062   578   661    1
  2063   578   659    1
  2064   578   812    1
  2065  2289  2380    1
  2066  2289  2382    1
  2067  8581  8672    1
  2068  8581  8674    1
  2069  3438  3521    1
  2070  3438  3519    1
  2071  3438  3672    1
  2072  5149  5240    1
  2073  5149  5242    1
  2074     6    89    1
  2075     6    87    1
  2076     6   240    1
  2077  6298  6381    1
  2078  6298  6379    1
  2079  6298  6532    1
  2080  8009  8100    1
  2081  8009  8102    1
  2082  2866  2949    1
  2083  2866  2947    1
  2084  2866  3100    1
  2085  4577  4668    1
  2086  4577  4670    1
  2087  5726  5809    1
  2088  5726  5807    1
  2089  5726  5960    1
  2090  7437  7528    1
  2091  7437  7530    1
  2092  2294  2377    1
  2093  2294  2375    1
  2094  2294  2528    1
  2095  8586  8669    1
  2096  8586  8667    1
  2097  8586  8820    1
  2098  5154  5237    1
  2099  5154  5235    1
  2100  5154  5388    1
  2101  6865  6956    1
  2102  6865  6958    1
  2103  8014  8097    1
  2104  8014  8095    1
  2105  8014  8248    1
  2106  4582  4665    1
  2107  4582  4663    1
  2108  4582  4816    1
  2109  7442  7525    1
  2110  7442  7523    1
  2111  7442  7676    1
  2112  1778  1911    1
  2113  1779  4066   ar
  2114  1779  1910   ar
  2115  6870  6953    1
  2116  6870  6951    1
  2117  6870  7104    1
  2118  1206  1339    1
  2119  1207  3494   ar
  2120  1207  1338   ar
  2121  4066  4199   ar
  2122  4067  6354   ar
  2123  4067  4198   ar
  2124   634   767    1
  2125   635  2922   ar
  2126   635   766   ar
  2127  1808  1917    1
  2128  3494  3627   ar
  2129  3495  5782   ar
  2130  3495  3626   ar
  2131  1776  1909    1
  2132  1781  1204   ar
  2133  1781  1908   ar
  2134    62   195    1
  2135  6354  6487   ar
  2136    63  2350   ar
  2137    63   194   ar
  2138  1236  1345    1
  2139  6355  8642   ar
  2140  6355  6486   ar
  2141  2922  3055   ar
  2142  1805  1916    1
  2143  1803  1914    1
  2144  1810  1915    1
  2145  2923  5210   ar
  2146  2923  3054   ar
  2147  1204  1337   ar
  2148  1209   632   ar
  2149  1209  1336   ar
  2150  4096  4205    1
  2151  5782  5915   ar
  2152   664   773    1
  2153  5783  8070   ar
  2154  5783  5914   ar
  2155  4064  4197    1
  2156  4069  3492   ar
  2157  4069  4196   ar
  2158  2350  2483   ar
  2159  1233  1344    1
  2160  1231  1342    1
  2161  8642  8775   ar
  2162  1238  1343    1
  2163  2351  4638   ar
  2164  2351  2482   ar
  2165   632   765   ar
  2166   637    60   ar
  2167   637   764   ar
  2168  3524  3633    1
  2169  8643  8774    1
  2170  5210  5343   ar
  2171  4093  4204    1
  2172  4091  4202    1
  2173    92   201    1
  2174  4098  4203    1
  2175  5211  7498   ar
  2176  5211  5342   ar
  2177  3492  3625   ar
  2178  3497  2920   ar
  2179  3497  3624   ar
  2180  6384  6493    1
  2181   661   772    1
  2182   659   770    1
  2183  8070  8203   ar
  2184   666   771    1
  2185    60   193   ar
  2186    65   192    1
  2187  2952  3061    1
  2188  8071  8202    1
  2189  6352  6485    1
  2190  6357  5780   ar
  2191  6357  6484   ar
  2192  4638  4771   ar
  2193  3521  3632    1
  2194  3519  3630    1
  2195  3526  3631    1
  2196  4639  6926   ar
  2197  4639  4770   ar
  2198  2920  3053   ar
  2199  2925  2348   ar
  2200  2925  3052   ar
  2201  5812  5921    1
  2202    89   200    1
  2203    87   198    1
  2204  7498  7631   ar
  2205  6381  6492    1
  2206    94   199    1
  2207  6379  6490    1
  2208  2380  2489    1
  2209  6386  6491    1
  2210  7499  7630    1
  2211  5780  5913   ar
  2212  5785  5208   ar
  2213  5785  5912   ar
  2214  8672  8781    1
  2215  2949  3060    1
  2216  2947  3058    1
  2217  2954  3059    1
  2218  2348  2481   ar
  2219  2353  2480    1
  2220  5240  5349    1
  2221  8640  8773    1
  2222  8645  8068   ar
  2223  8645  8772   ar
  2224  6926  7059   ar
  2225  5809  5920    1
  2226  5807  5918    1
  2227  5814  5919    1
  2228  6927  7058    1
  2229  5208  5341   ar
  2230  5213  4636   ar
  2231  5213  5340   ar
  2232  8100  8209    1
  2233  2377  2488    1
  2234  2375  2486    1
  2235  8669  8780    1
  2236  2382  2487    1
  2237  8667  8778    1
  2238  4668  4777    1
  2239  8674  8779    1
  2240  8068  8201   ar
  2241  8073  7496   ar
  2242  8073  8200   ar
  2243  5237  5348    1
  2244  5235  5346    1
  2245  5242  5347    1
  2246  4636  4769   ar
  2247  4641  4768    1
  2248  7528  7637    1
  2249  8097  8208    1
  2250  8095  8206    1
  2251  8102  8207    1
  2252  7496  7629   ar
  2253  7501  6924   ar
  2254  7501  7628   ar
  2255  4665  4776    1
  2256  4663  4774    1
  2257  4670  4775    1
  2258  6956  7065    1
  2259  7525  7636    1
  2260  7523  7634    1
  2261  7530  7635    1
  2262  6924  7057   ar
  2263  6929  7056    1
  2264  6953  7064    1
  2265  6951  7062    1
  2266  6958  7063    1
  2267  1874  1957    1
  2268  1911  1917    2
  2269  1911  1923    1
  2270  1910  1916    1
  2271  1910  1920   ar
  2272  1302  1385    1
  2273  1957  1864    1
  2274  1917  1949    1
  2275  4162  4245    1
  2276  1339  1345    2
  2277  1339  1351    1
  2278  1916  1950    1
  2279  1338  1344    1
  2280  1338  1348   ar
  2281   730   813    1
  2282  1385  1292    1
  2283  1345  1377    1
  2284  4199  4205    1
  2285  4199  4211   ar
  2286  4198  4204    1
  2287  4198  4208   ar
  2288  3590  3673    1
  2289  4245  4152    1
  2290   767   773    2
  2291   767   779    1
  2292  4205  4237    1
  2293  1914  1908    1
  2294  1914  1952    1
  2295  1344  1378    1
  2296   766   772    1
  2297   766   776   ar
  2298   158   241    1
  2299  1915  1909    2
  2300  1915  1947    1
  2301   813   720    1
  2302   773   805    1
  2303  6450  6533    1
  2304  1908  1918   ar
  2305  3627  3633    1
  2306  3627  3639   ar
  2307  4204  4238    1
  2308  3626  3632    1
  2309  3626  3636   ar
  2310  3018  3101    1
  2311  3673  3580    1
  2312   195   201    2
  2313   195   207    1
  2314  1909  1925    1
  2315  3633  3665    1
  2316  1342  1336    1
  2317  1342  1380    1
  2318  6487  6493    1
  2319  6487  6499   ar
  2320   772   806    1
  2321   194   200    1
  2322   194   204   ar
  2323  1343  1337    1
  2324  1343  1375    1
  2325  1956  1875    1
  2326   241   148    1
  2327   201   233    1
  2328  6486  6492    1
  2329  6486  6496   ar
  2330  5878  5961    1
  2331  1336  1346   ar
  2332  6533  6440    1
  2333  3055  3061    1
  2334  3055  3067   ar
  2335  6493  6525    1
  2336  4202  4196    1
  2337  4202  4240    1
  2338  3632  3666    1
  2339  3054  3060    1
  2340  3054  3064   ar
  2341  2446  2529    1
  2342  4203  4197    2
  2343  4203  4235    1
  2344  3101  3008    1
  2345  1337  1353   ar
  2346  3061  3093    1
  2347  8738  8821    1
  2348  4196  4206   ar
  2349   770   764    1
  2350   770   808    1
  2351  5915  5921    1
  2352  5915  5927   ar
  2353   200   234    1
  2354  6492  6526    1
  2355   771   765    1
  2356   771   803    1
  2357  1384  1303    1
  2358  5914  5920    1
  2359  5914  5924   ar
  2360  5306  5389    1
  2361   764   774   ar
  2362  5961  5868    1
  2363  2483  2489    1
  2364  2483  2495   ar
  2365  4197  4213    1
  2366  5921  5953    1
  2367  3630  3624    1
  2368  3630  3668    1
  2369  8775  8781    1
  2370  8775  8787   ar
  2371  3060  3094    1
  2372  2482  2488    1
  2373  2482  2492   ar
  2374  3631  3625    1
  2375  3631  3663    1
  2376  4244  4163    1
  2377  2529  2436    1
  2378   765   781   ar
  2379  2489  2521    1
  2380  8774  8780    2
  2381  8774  8784    1
  2382  8166  8249    1
  2383  3624  3634   ar
  2384   198   192    2
  2385   198   236    1
  2386  8821  8728    1
  2387  5343  5349    1
  2388  5343  5355   ar
  2389  8781  8813    1
  2390  6490  6484    1
  2391  6490  6528    1
  2392  5920  5954    1
  2393   199   193    1
  2394   199   231    1
  2395   812   731    1
  2396  5342  5348    1
  2397  5342  5352   ar
  2398  4734  4817    1
  2399  6491  6485    2
  2400  6491  6523    1
  2401   192   202    1
  2402  5389  5296    1
  2403  3625  3641   ar
  2404  5349  5381    1
  2405  6484  6494   ar
  2406  3058  3052    1
  2407  3058  3096    1
  2408  8203  8209    1
  2409  8203  8215   ar
  2410  2488  2522    1
  2411  8780  8814    1
  2412  3059  3053    1
  2413  3059  3091    1
  2414  3672  3591    1
  2415   193   209   ar
  2416  8202  8208    2
  2417  8202  8212    1
  2418  7594  7677    1
  2419  3052  3062   ar
  2420  8249  8156    1
  2421  4771  4777    1
  2422  4771  4783   ar
  2423  6485  6501    1
  2424  8209  8241    1
  2425  5918  5912    1
  2426  5918  5956    1
  2427  5348  5382    1
  2428   240   159    1
  2429  4770  4776    1
  2430  4770  4780   ar
  2431  5919  5913    1
  2432  5919  5951    1
  2433  6532  6451    1
  2434  4817  4724    1
  2435  3053  3069   ar
  2436  4777  4809    1
  2437  5912  5922   ar
  2438  2486  2480    2
  2439  2486  2524    1
  2440  7631  7637    1
  2441  7631  7643   ar
  2442  8778  8772    1
  2443  8778  8816    1
  2444  8208  8242    1
  2445  2487  2481    1
  2446  2487  2519    1
  2447  3100  3019    1
  2448  7630  7636    2
  2449  7630  7640    1
  2450  7022  7105    1
  2451  8779  8773    2
  2452  8779  8811    1
  2453  2480  2490    1
  2454  7677  7584    1
  2455  5913  5929   ar
  2456  7637  7669    1
  2457  8772  8782   ar
  2458  5346  5340    1
  2459  5346  5384    1
  2460  4776  4810    1
  2461  5347  5341    1
  2462  5347  5379    1
  2463  5960  5879    1
  2464  2481  2497   ar
  2465  5340  5350   ar
  2466  7059  7065    1
  2467  7059  7071   ar
  2468  8773  8789    1
  2469  8206  8200    1
  2470  8206  8244    1
  2471  7636  7670    1
  2472  2528  2447    1
  2473  7058  7064    2
  2474  7058  7068    1
  2475  8207  8201    1
  2476  8207  8239    1
  2477  8820  8739    1
  2478  7105  7012    1
  2479  5341  5357   ar
  2480  7065  7097    1
  2481  8200  8210   ar
  2482  4774  4768    2
  2483  4774  4812    1
  2484  4775  4769    1
  2485  4775  4807    1
  2486  5388  5307    1
  2487  4768  4778    1
  2488  8201  8217   ar
  2489  7634  7628    1
  2490  7634  7672    1
  2491  7064  7098    1
  2492  7635  7629    1
  2493  7635  7667    1
  2494  8248  8167    1
  2495  4769  4785   ar
  2496  7628  7638   ar
  2497  4816  4735    1
  2498  7629  7645   ar
  2499  7062  7056    2
  2500  7062  7100    1
  2501  7063  7057    1
  2502  7063  7095    1
  2503  7676  7595    1
  2504  7056  7066    1
  2505  7057  7073   ar
  2506  7104  7023    1
  2507  1949  1864    1
  2508  1923  1873    1
  2509  1950  1861    1
  2510  1377  1292    1
  2511  1947  1864    1
  2512  1952  1861    1
  2513  1920  4211   ar
  2514  1920  1871    1
  2515  4237  4152    1
  2516  1351  1301    1
  2517  1378  1289    1
  2518   805   720    1
  2519  1375  1292    1
  2520  1380  1289    1
  2521  4211  4161    1
  2522  4238  4149    1
  2523  1348  3639   ar
  2524  1348  1299    1
  2525  3665  3580    1
  2526  4235  4152    1
  2527   779   729    1
  2528   806   717    1
  2529  4240  4149    1
  2530   233   148    1
  2531   803   720    1
  2532  4208  6499   ar
  2533  4208  4159    1
  2534  6525  6440    1
  2535   808   717    1
  2536  3639  3589    1
  2537  3666  3577    1
  2538   776  3067   ar
  2539   776   727    1
  2540  3093  3008    1
  2541  3663  3580    1
  2542  1918  1353   ar
  2543  1918  1869    1
  2544   207   157    1
  2545   234   145    1
  2546  3668  3577    1
  2547  6499  6449    1
  2548  6526  6437    1
  2549   231   148    1
  2550  3636  5927   ar
  2551  3636  3587    1
  2552  1925  1926    1
  2553  5953  5868    1
  2554  6523  6440    1
  2555   236   145    1
  2556  3067  3017    1
  2557  3094  3005    1
  2558  6528  6437    1
  2559   204  2495   ar
  2560   204   155    1
  2561  2521  2436    1
  2562  3091  3008    1
  2563  1346   781   ar
  2564  1346  1297    1
  2565  6496  8787   ar
  2566  6496  6447    1
  2567  8813  8728    1
  2568  3096  3005    1
  2569  5927  5877    1
  2570  5954  5865    1
  2571  3064  5355   ar
  2572  3064  3015    1
  2573  1353  1354    1
  2574  5381  5296    1
  2575  5951  5868    1
  2576  4206  3641   ar
  2577  4206  4157    1
  2578  2495  2445    1
  2579  2522  2433    1
  2580  5956  5865    1
  2581  8787  8737    1
  2582  8814  8725    1
  2583  2519  2436    1
  2584   774   209   ar
  2585   774   725    1
  2586  5924  8215   ar
  2587  5924  5875    1
  2588  4213  4214    1
  2589  8241  8156    1
  2590  8811  8728    1
  2591  2524  2433    1
  2592  5355  5305    1
  2593  5382  5293    1
  2594  8816  8725    1
  2595  2492  4783   ar
  2596  2492  2443    1
  2597   781   782    1
  2598  4809  4724    1
  2599  5379  5296    1
  2600  3634  3069   ar
  2601  3634  3585    1
  2602  8784  8735    1
  2603  5384  5293    1
  2604  8215  8165    1
  2605  8242  8153    1
  2606   202   153    1
  2607  5352  7643   ar
  2608  5352  5303    1
  2609  3641  3642    1
  2610  7669  7584    1
  2611  8239  8156    1
  2612  6494  5929   ar
  2613  6494  6445    1
  2614  4783  4733    1
  2615  4810  4721    1
  2616  8244  8153    1
  2617   209   210    1
  2618  4807  4724    1
  2619  3062  2497   ar
  2620  3062  3013    1
  2621  8212  8163    1
  2622  6501  6502    1
  2623  4812  4721    1
  2624  7643  7593    1
  2625  7670  7581    1
  2626  4780  7071   ar
  2627  4780  4731    1
  2628  3069  3070    1
  2629  7097  7012    1
  2630  7667  7584    1
  2631  5922  5357   ar
  2632  5922  5873    1
  2633  7672  7581    1
  2634  2490  2441    1
  2635  7640  7591    1
  2636  5929  5930    1
  2637  8782  8217   ar
  2638  8782  8733    1
  2639  7071  7021    1
  2640  7098  7009    1
  2641  2497  2498    1
  2642  7095  7012    1
  2643  5350  4785   ar
  2644  5350  5301    1
  2645  8789  8790    1
  2646  7100  7009    1
  2647  7068  7019    1
  2648  5357  5358    1
  2649  8210  7645   ar
  2650  8210  8161    1
  2651  4778  4729    1
  2652  8217  8218    1
  2653  4785  4786    1
  2654  7638  7073   ar
  2655  7638  7589    1
  2656  7645  7646    1
  2657  7066  7017    1
  2658  1864  1945    1
  2659  1864  1943    1
  2660  1864  1933    1
  2661  7073  7074    1
  2662  1292  1373    1
  2663  1292  1371    1
  2664  1292  1361    1
  2665  4152  4233    1
  2666  4152  4231    1
  2667  4152  4221    1
  2668   720   801    1
  2669   720   799    1
  2670   720   789    1
  2671  1861  1938    1
  2672  1861  1940    1
  2673  1861  1936    1
  2674  3580  3661    1
  2675  3580  3659    1
  2676  3580  3649    1
  2677   148   229    1
  2678   148   227    1
  2679   148   217    1
  2680  6440  6521    1
  2681  6440  6519    1
  2682  6440  6509    1
  2683  1289  1366    1
  2684  1289  1368    1
  2685  1289  1364    1
  2686  3008  3089    1
  2687  3008  3087    1
  2688  3008  3077    1
  2689  4149  4226    1
  2690  4149  4228    1
  2691  4149  4224    1
  2692  5868  5949    1
  2693  5868  5947    1
  2694  5868  5937    1
  2695   717   794    1
  2696   717   796    1
  2697   717   792    1
  2698  2436  2517    1
  2699  2436  2515    1
  2700  2436  2505    1
  2701  8728  8809    1
  2702  8728  8807    1
  2703  8728  8797    1
  2704  3577  3654    1
  2705  3577  3656    1
  2706  3577  3652    1
  2707  5296  5377    1
  2708  5296  5375    1
  2709  5296  5365    1
  2710   145   222    1
  2711   145   224    1
  2712   145   220    1
  2713  6437  6514    1
  2714  6437  6516    1
  2715  6437  6512    1
  2716  8156  8237    1
  2717  8156  8235    1
  2718  8156  8225    1
  2719  3005  3082    1
  2720  3005  3084    1
  2721  3005  3080    1
  2722  4724  4805    1
  2723  4724  4803    1
  2724  4724  4793    1
  2725  5865  5942    1
  2726  5865  5944    1
  2727  5865  5940    1
  2728  7584  7665    1
  2729  7584  7663    1
  2730  7584  7653    1
  2731  2433  2510    1
  2732  2433  2512    1
  2733  2433  2508    1
  2734  8725  8802    1
  2735  8725  8804    1
  2736  8725  8800    1
  2737  5293  5370    1
  2738  5293  5372    1
  2739  5293  5368    1
  2740  7012  7093    1
  2741  7012  7091    1
  2742  7012  7081    1
  2743  8153  8230    1
  2744  8153  8232    1
  2745  8153  8228    1
  2746  4721  4798    1
  2747  4721  4800    1
  2748  4721  4796    1
  2749  7581  7658    1
  2750  7581  7660    1
  2751  7581  7656    1
  2752  1884  1954    1
  2753  7009  7086    1
  2754  7009  7088    1
  2755  7009  7084    1
  2756  1312  1382    1
  2757  1945  1863    1
  2758  4172  4242    1
  2759   740   810    1
  2760  1373  1291    1
  2761  3600  3670    1
  2762   168   238    1
  2763  4233  4151    1
  2764  6460  6530    1
  2765   801   719    1
  2766  3028  3098    1
  2767  1938  1867    1
  2768  3661  3579    1
  2769  5888  5958    1
  2770  1926  1882    1
  2771   229   147    1
  2772  2456  2526    1
  2773  6521  6439    1
  2774  8748  8818    1
  2775  1366  1295    1
  2776  3089  3007    1
  2777  5316  5386    1
  2778  1354  1310    1
  2779  1354  1883    1
  2780  4226  4155    1
  2781  5949  5867    1
  2782  8176  8246    1
  2783  4214  4170    1
  2784   794   723    1
  2785  2517  2435    1
  2786  4744  4814    1
  2787   782   738    1
  2788   782  1311    1
  2789  8809  8727    1
  2790  3654  3583    1
  2791  5377  5295    1
  2792  7604  7674    1
  2793  3642  3598    1
  2794  3642  4171    1
  2795   222   151    1
  2796  6514  6443    1
  2797   210   166    1
  2798   210   739    1
  2799  8237  8155    1
  2800  6502  6458    1
  2801  3082  3011    1
  2802  4805  4723    1
  2803  7032  7102    1
  2804  3070  3026    1
  2805  3070  3599    1
  2806  5942  5871    1
  2807  7665  7583    1
  2808  5930  5886    1
  2809  5930  6459    1
  2810  2510  2439    1
  2811  8802  8731    1
  2812  2498  2454    1
  2813  2498  3027    1
  2814  8790  8746    1
  2815  5370  5299    1
  2816  7093  7011    1
  2817  5358  5314    1
  2818  5358  5887    1
  2819  8230  8159    1
  2820  8218  8174    1
  2821  8218  8747    1
  2822  4798  4727    1
  2823  4786  4742    1
  2824  4786  5315    1
  2825  1943  1863    1
  2826  7658  7587    1
  2827  7646  7602    1
  2828  7646  8175    1
  2829  1371  1291    1
  2830  7086  7015    1
  2831  1940  1867    1
  2832  7074  7030    1
  2833  7074  7603    1
  2834  4231  4151    1
  2835   799   719    1
  2836  1954  1867    1
  2837  1368  1295    1
  2838  3659  3579    1
  2839  4228  4155    1
  2840   227   147    1
  2841  1382  1295    1
  2842  6519  6439    1
  2843   796   723    1
  2844  3087  3007    1
  2845  4242  4155    1
  2846  3656  3583    1
  2847   810   723    1
  2848  5947  5867    1
  2849   224   151    1
  2850  6516  6443    1
  2851  2515  2435    1
  2852  3670  3583    1
  2853  8807  8727    1
  2854  3084  3011    1
  2855   238   151    1
  2856  5375  5295    1
  2857  6530  6443    1
  2858  5944  5871    1
  2859  3098  3011    1
  2860  8235  8155    1
  2861  2512  2439    1
  2862  8804  8731    1
  2863  4803  4723    1
  2864  5958  5871    1
  2865  5372  5299    1
  2866  2526  2439    1
  2867  7663  7583    1
  2868  8818  8731    1
  2869  8232  8159    1
  2870  5386  5299    1
  2871  4800  4727    1
  2872  7091  7011    1
  2873  8246  8159    1
  2874  7660  7587    1
  2875  4814  4727    1
  2876  1933  1895    1
  2877  7674  7587    1
  2878  7088  7015    1
  2879  1361  1323    1
  2880  7102  7015    1
  2881  4221  4183    1
  2882   789   751    1
  2883  1936  1892    1
  2884  3649  3611    1
  2885   217   179    1
  2886  1364  1320    1
  2887  6509  6471    1
  2888  3077  3039    1
  2889  4224  4180    1
  2890   792   748    1
  2891  5937  5899    1
  2892  1863  1934    1
  2893  1863  1983    1
  2894  2505  2467    1
  2895  3652  3608    1
  2896  8797  8759    1
  2897   220   176    1
  2898  5365  5327    1
  2899  1291  1362    1
  2900  1291  1411    1
  2901  6512  6468    1
  2902  1867  1930    1
  2903  1867  1980    1
  2904  3080  3036    1
  2905  8225  8187    1
  2906  4151  4222    1
  2907  4151  4271    1
  2908  4793  4755    1
  2909   719   790    1
  2910   719   839    1
  2911  5940  5896    1
  2912  1295  1358    1
  2913  1295  1408    1
  2914  2508  2464    1
  2915  7653  7615    1
  2916  3579  3650    1
  2917  3579  3699    1
  2918  8800  8756    1
  2919  4155  4218    1
  2920  4155  4268    1
  2921   147   218    1
  2922   147   267    1
  2923  5368  5324    1
  2924  6439  6510    1
  2925  6439  6559    1
  2926   723   786    1
  2927   723   836    1
  2928  7081  7043    1
  2929  3007  3078    1
  2930  3007  3127    1
  2931  8228  8184    1
  2932  3583  3646    1
  2933  3583  3696    1
  2934  4796  4752    1
  2935  5867  5938    1
  2936  5867  5987    1
  2937   151   214    1
  2938   151   264    1
  2939  6443  6506    1
  2940  6443  6556    1
  2941  2435  2506    1
  2942  2435  2555    1
  2943  7656  7612    1
  2944  8727  8798    1
  2945  8727  8847    1
  2946  3011  3074    1
  2947  3011  3124    1
  2948  5295  5366    1
  2949  5295  5415    1
  2950  5871  5934    1
  2951  5871  5984    1
  2952  7084  7040    1
  2953  8155  8226    1
  2954  8155  8275    1
  2955  2439  2502    1
  2956  2439  2552    1
  2957  8731  8794    1
  2958  8731  8844    1
  2959  4723  4794    1
  2960  4723  4843    1
  2961  5299  5362    1
  2962  5299  5412    1
  2963  7583  7654    1
  2964  7583  7703    1
  2965  8159  8222    1
  2966  8159  8272    1
  2967  4727  4790    1
  2968  4727  4840    1
  2969  7011  7082    1
  2970  7011  7131    1
  2971  1881  1903    1
  2972  7587  7650    1
  2973  7587  7700    1
  2974  1309  1331    1
  2975  7015  7078    1
  2976  7015  7128    1
  2977  1879  1906    1
  2978  4169  4191    1
  2979   737   759    1
  2980  1307  1334    1
  2981  3597  3619    1
  2982   165   187    1
  2983  4167  4194    1
  2984  6457  6479    1
  2985   735   762    1
  2986  3025  3047    1
  2987  3595  3622    1
  2988  5885  5907    1
  2989   163   190    1
  2990  2453  2475    1
  2991  6455  6482    1
  2992  8745  8767    1
  2993  3023  3050    1
  2994  5313  5335    1
  2995  5883  5910    1
  2996  8173  8195    1
  2997  2451  2478    1
  2998  4741  4763    1
  2999  8743  8770    1
  3000  5311  5338    1
  3001  7601  7623    1
  3002  8171  8198    1
  3003  4739  4766    1
  3004  7029  7051    1
  3005  7599  7626    1
  3006  1895  1934    1
  3007  1895  1899    1
  3008  7027  7054    1
  3009  1323  1362    1
  3010  1323  1327    1
  3011  4183  4222    1
  3012  4183  4187    1
  3013   751   790    1
  3014   751   755    1
  3015  1892  1930    1
  3016  1892  1896    1
  3017  3611  3650    1
  3018  3611  3615    1
  3019   179   218    1
  3020   179   183    1
  3021  6471  6510    1
  3022  6471  6475    1
  3023  1320  1358    1
  3024  1320  1324    1
  3025  3039  3078    1
  3026  3039  3043    1
  3027  4180  4218    1
  3028  4180  4184    1
  3029  5899  5938    1
  3030  5899  5903    1
  3031   748   786    1
  3032   748   752    1
  3033  2467  2506    1
  3034  2467  2471    1
  3035  8759  8798    1
  3036  8759  8763    1
  3037  3608  3646    1
  3038  3608  3612    1
  3039  5327  5366    1
  3040  5327  5331    1
  3041   176   214    1
  3042   176   180    1
  3043  6468  6506    1
  3044  6468  6472    1
  3045  8187  8226    1
  3046  8187  8191    1
  3047  3036  3074    1
  3048  3036  3040    1
  3049  4755  4794    1
  3050  4755  4759    1
  3051  5896  5934    1
  3052  5896  5900    1
  3053  7615  7654    1
  3054  7615  7619    1
  3055  2464  2502    1
  3056  2464  2468    1
  3057  8756  8794    1
  3058  8756  8760    2
  3059  5324  5362    1
  3060  5324  5328    1
  3061  7043  7082    1
  3062  7043  7047    1
  3063  8184  8222    1
  3064  8184  8188    2
  3065  4752  4790    1
  3066  4752  4756    1
  3067  7612  7650    1
  3068  7612  7616    2
  3069  1966  1970    1
  3070  1983  1912    1
  3071  1903  1899    1
  3072  7040  7078    1
  3073  7040  7044    2
  3074  1394  1398    1
  3075  1411  1340    1
  3076  4254  4258    1
  3077  1331  1327   ar
  3078  1331  1905   ar
  3079  4271  4200    1
  3080   822   826    1
  3081  4191  4187    1
  3082   839   768    1
  3083  1906  1896   ar
  3084  1906  4189   ar
  3085  3682  3686    1
  3086   759   755   ar
  3087   759  1333   ar
  3088  3699  3628    1
  3089   250   254    1
  3090  6542  6546    1
  3091  3619  3615   ar
  3092  3619  4193   ar
  3093  1980  1912    1
  3094   267   196    1
  3095  1334  1324   ar
  3096  1334  3617   ar
  3097  6559  6488    1
  3098  3110  3114    1
  3099   187   183   ar
  3100   187   761   ar
  3101  6479  6475    1
  3102  3127  3056    1
  3103  4194  4184   ar
  3104  4194  6477   ar
  3105  5970  5974    1
  3106  3047  3043   ar
  3107  3047  3621   ar
  3108  1408  1340    1
  3109   762   752   ar
  3110   762  3045   ar
  3111  5987  5916    1
  3112  2538  2542    1
  3113  8830  8834    1
  3114  5907  5903   ar
  3115  5907  6481   ar
  3116  4268  4200    1
  3117  2555  2484    1
  3118  3622  3612   ar
  3119  3622  5905   ar
  3120  8847  8776    1
  3121  5398  5402    1
  3122  2475  2471   ar
  3123  2475  3049   ar
  3124   836   768    1
  3125   190   180   ar
  3126   190  2473   ar
  3127  8767  8763    1
  3128  5415  5344    1
  3129  6482  6472   ar
  3130  6482  8765   ar
  3131  8258  8262    1
  3132  5335  5331   ar
  3133  5335  5909   ar
  3134  3696  3628    1
  3135  3050  3040   ar
  3136  3050  5333   ar
  3137  8275  8204    1
  3138  4826  4830    1
  3139   264   196    1
  3140  8195  8191   ar
  3141  8195  8769   ar
  3142  6556  6488    1
  3143  4843  4772    1
  3144  5910  5900   ar
  3145  5910  8193   ar
  3146  7686  7690    1
  3147  4763  4759   ar
  3148  4763  5337   ar
  3149  3124  3056    1
  3150  1960  1974    1
  3151  2478  2468   ar
  3152  2478  4761   ar
  3153  7703  7632    1
  3154  8770  8760    1
  3155  7623  7619   ar
  3156  7623  8197   ar
  3157  5984  5916    1
  3158  5338  5328   ar
  3159  5338  7621   ar
  3160  7114  7118    1
  3161  2552  2484    1
  3162  1388  1402    1
  3163  8844  8776    1
  3164  7131  7060    1
  3165  8198  8188    1
  3166  1970  1974    1
  3167  1970  1976    2
  3168  7051  7047   ar
  3169  7051  7625   ar
  3170  5412  5344    1
  3171  4248  4262    1
  3172  1899  1904    2
  3173  4766  4756   ar
  3174  4766  7049   ar
  3175  1912  1968    1
  3176   816   830    1
  3177  8272  8204    1
  3178  7626  7616    1
  3179  1398  1402   ar
  3180  1398  1404   ar
  3181  1880  1901    1
  3182  4840  4772    1
  3183  3676  3690    1
  3184  1327  1332   ar
  3185  1340  1396    1
  3186  4258  4262    1
  3187  4258  4264    2
  3188   244   258    1
  3189  7700  7632    1
  3190  6536  6550    1
  3191  4187  4192    2
  3192  7054  7044    1
  3193  4200  4256    1
  3194   826   830   ar
  3195   826   832   ar
  3196  1308  1329    1
  3197  3104  3118    1
  3198   755   760   ar
  3199   768   824    1
  3200  1896  1900   ar
  3201  3686  3690   ar
  3202  3686  3692   ar
  3203  4168  4189    1
  3204  7128  7060    1
  3205  4255  1976    1
  3206  5964  5978    1
  3207  3615  3620   ar
  3208  3628  3684    1
  3209   254   258   ar
  3210   254   260   ar
  3211  6546  6550    1
  3212  6546  6552    2
  3213   736   757    1
  3214  2532  2546    1
  3215   183   188   ar
  3216   196   252    1
  3217  8824  8838    1
  3218  6475  6480    2
  3219  1324  1328   ar
  3220  6488  6544    1
  3221  3114  3118   ar
  3222  3114  3120   ar
  3223  3596  3617    1
  3224  3683  1404    1
  3225  5392  5406    1
  3226  3043  3048   ar
  3227  3056  3112    1
  3228  4184  4188   ar
  3229  5974  5978   ar
  3230  5974  5980   ar
  3231   164   185    1
  3232  6456  6477    1
  3233  6543  4264    1
  3234  8252  8266    1
  3235  5903  5908   ar
  3236   752   756   ar
  3237  5916  5972    1
  3238  2542  2546   ar
  3239  2542  2548   ar
  3240  8834  8838    2
  3241  8834  8840    1
  3242  3024  3045    1
  3243  3111   832    1
  3244  1876  1905    1
  3245  4820  4834    1
  3246  2471  2476   ar
  3247  1402  4265   ar
  3248  2484  2540    1
  3249  8763  8768    2
  3250  3612  3616   ar
  3251  8776  8832    1
  3252  5402  5406   ar
  3253  5402  5408   ar
  3254  5884  5905    1
  3255  5971  3692    1
  3256  7680  7694    1
  3257  5331  5336   ar
  3258   180   184   ar
  3259  5344  5400    1
  3260  6472  6476   ar
  3261  8262  8266    2
  3262  8262  8268    1
  3263  2452  2473    1
  3264  2539   260    1
  3265  1304  1333    1
  3266   830  3693   ar
  3267  8744  8765    1
  3268  8831  6552    1
  3269  8191  8196   ar
  3270  3040  3044   ar
  3271  8204  8260    1
  3272  4830  4834   ar
  3273  4830  4836   ar
  3274  5312  5333    1
  3275  5399  3120    1
  3276  4164  4193    1
  3277  7108  7122    1
  3278  4759  4764   ar
  3279  3690  6553   ar
  3280  4772  4828    1
  3281  5900  5904   ar
  3282  7690  7694    2
  3283  7690  7696    1
  3284   732   761    1
  3285   258  3121   ar
  3286  8172  8193    1
  3287  8259  5980    1
  3288  7619  7624   ar
  3289  2468  2472   ar
  3290  7632  7688    1
  3291  1404  4263   ar
  3292  8760  8764    1
  3293  4740  4761    1
  3294  4827  2548    1
  3295  3592  3621    1
  3296  3118  5981   ar
  3297  5328  5332   ar
  3298  1901  1897    1
  3299  7118  7122    2
  3300  7118  7124    1
  3301   160   189    1
  3302  7600  7621    1
  3303  7687  5408    1
  3304  6452  6481    1
  3305  7047  7052   ar
  3306  5978  8841   ar
  3307  7060  7116    1
  3308   832  3691   ar
  3309  8188  8192    1
  3310  3020  3049    1
  3311  2546  5409   ar
  3312  4756  4760   ar
  3313  1329  1325    1
  3314  3692  6551   ar
  3315  7028  7049    1
  3316  7115  4836    1
  3317  5880  5909    1
  3318  5406  8269   ar
  3319   260  3119   ar
  3320  7616  7620    1
  3321  4189  4185   ar
  3322  2448  2477    1
  3323  8740  8769    1
  3324   757   753    1
  3325  3120  5979   ar
  3326  5308  5337    1
  3327  4834  7697   ar
  3328  1905  1898   ar
  3329  7044  7048    1
  3330  3617  3613   ar
  3331  5980  8839   ar
  3332  8168  8197    1
  3333   185   181    1
  3334  2548  5407   ar
  3335  6477  6473   ar
  3336  4736  4765    1
  3337  1333  1326   ar
  3338  3045  3041   ar
  3339  5408  8267   ar
  3340  7596  7625    1
  3341  4193  4186   ar
  3342  5905  5901   ar
  3343   761   754   ar
  3344  2473  2469   ar
  3345  1965  1972    1
  3346  4836  7695   ar
  3347  8765  8761   ar
  3348  7024  7053    1
  3349  3621  3614   ar
  3350  5333  5329   ar
  3351   189   182    1
  3352  6481  6474   ar
  3353  1393  1400    1
  3354  8193  8189   ar
  3355  3049  3042   ar
  3356  4761  4757   ar
  3357  4253  4260    1
  3358  1977  1963    1
  3359  1977  1971    1
  3360  5909  5902   ar
  3361   821   828    1
  3362  7621  7617   ar
  3363  2477  2470    1
  3364  8769  8762   ar
  3365  3681  3688    1
  3366  1405  1391    1
  3367  1405  1399    1
  3368  5337  5330   ar
  3369   249   256    1
  3370  7049  7045   ar
  3371  6541  6548    1
  3372  4265  4251    1
  3373  4265  4259   ar
  3374  8197  8190   ar
  3375  3109  3116    1
  3376   833   819    1
  3377   833   827    1
  3378  1968  1972   ar
  3379  1968  1978   ar
  3380  4765  4758    1
  3381  1975  1971    1
  3382  1975  1959    1
  3383  5969  5976    1
  3384  3693  3679    1
  3385  3693  3687   ar
  3386  7625  7618   ar
  3387  2537  2544    1
  3388   261   247    1
  3389   261   255    1
  3390  8829  8836    1
  3391  1396  1400   ar
  3392  1396  1406   ar
  3393  6553  6539    1
  3394  6553  6547   ar
  3395  1403  1399    1
  3396  1403  1387    1
  3397  5397  5404    1
  3398  3121  3107    1
  3399  3121  3115   ar
  3400  4256  4260   ar
  3401  4256  4266   ar
  3402  7053  7046    1
  3403  4263  4259   ar
  3404  4263  4247    1
  3405  8257  8264    1
  3406   824   828   ar
  3407   824   834   ar
  3408  5981  5967    1
  3409  5981  5975   ar
  3410   831   827    1
  3411   831   815    1
  3412  4825  4832    1
  3413  2549  2535    1
  3414  2549  2543    1
  3415  3684  3688   ar
  3416  3684  3694   ar
  3417  8841  8827    1
  3418  8841  8835   ar
  3419  3691  3687   ar
  3420  3691  3675    1
  3421  7685  7692    1
  3422   252   256   ar
  3423   252   262   ar
  3424  5409  5395    1
  3425  5409  5403   ar
  3426  6544  6548   ar
  3427  6544  6554   ar
  3428   259   255    1
  3429   259   243    1
  3430  6551  6547   ar
  3431  6551  6535    1
  3432  3112  3116   ar
  3433  3112  3122   ar
  3434  8269  8255    1
  3435  8269  8263   ar
  3436  3119  3115   ar
  3437  3119  3103    1
  3438  7113  7120    1
  3439  1972  1979   ar
  3440  4837  4823    1
  3441  4837  4831    1
  3442  5972  5976   ar
  3443  5972  5982   ar
  3444  5979  5975   ar
  3445  5979  5963    1
  3446  2540  2544   ar
  3447  2540  2550   ar
  3448  7697  7683    1
  3449  7697  7691   ar
  3450  1971  1913    2
  3451  8832  8836   ar
  3452  8832  8842   ar
  3453  2547  2543    1
  3454  2547  2531    1
  3455  1400  1407   ar
  3456  8839  8835   ar
  3457  8839  8823    1
  3458  5400  5404   ar
  3459  5400  5410   ar
  3460  5407  5403   ar
  3461  5407  5391    1
  3462  4260  4267   ar
  3463  7125  7111    1
  3464  7125  7119    1
  3465  1399  1341    2
  3466  8260  8264   ar
  3467  8260  8270   ar
  3468   828   835   ar
  3469  8267  8263   ar
  3470  8267  8251    1
  3471  4828  4832   ar
  3472  4828  4838   ar
  3473  4259  4201    1
  3474  1961  1978    1
  3475  4835  4831    1
  3476  4835  4819    1
  3477  3688  3695   ar
  3478   827   769    2
  3479  7688  7692   ar
  3480  7688  7698   ar
  3481   256   263   ar
  3482  7695  7691   ar
  3483  7695  7679    1
  3484  6548  6555   ar
  3485  3687  3629    1
  3486  1389  1406    1
  3487  3116  3123   ar
  3488   255   197    2
  3489  7116  7120   ar
  3490  7116  7126   ar
  3491  6547  6489    1
  3492  4249  4266    1
  3493  7123  7119    1
  3494  7123  7107    1
  3495  1904  1877    1
  3496  5976  5983   ar
  3497  3115  3057    1
  3498   817   834    1
  3499  2544  2551   ar
  3500  8836  8843   ar
  3501  5975  5917    1
  3502  3677  3694    1
  3503  1332  1305    1
  3504  1332  1902   ar
  3505  5404  5411   ar
  3506  2543  2485    2
  3507   245   262    1
  3508  8835  8777    1
  3509  6537  6554    1
  3510  1889  1928    1
  3511  4192  4165    1
  3512  8264  8271   ar
  3513  1978  1973   ar
  3514  5403  5345    1
  3515  3105  3122    1
  3516   760   733    1
  3517   760  1330   ar
  3518  4832  4839   ar
  3519  8263  8205    1
  3520  5965  5982    1
  3521  1317  1356    1
  3522  3620  3593    1
  3523  3620  4190   ar
  3524  7692  7699   ar
  3525  1406  1401   ar
  3526  4831  4773    2
  3527  2533  2550    1
  3528   188   161    1
  3529   188   758   ar
  3530  8825  8842    1
  3531  4177  4216    1
  3532  6480  6453    1
  3533  1900  1928    1
  3534  1900  4195   ar
  3535  4266  4261   ar
  3536  7691  7633    1
  3537  5393  5410    1
  3538   745   784    1
  3539  3048  3021    1
  3540  3048  3618   ar
  3541  7120  7127   ar
  3542   834   829   ar
  3543  8253  8270    1
  3544  3605  3644    1
  3545  5908  5881    1
  3546  5908  6478   ar
  3547  1328  1356    1
  3548  1328  3623   ar
  3549  3694  3689   ar
  3550  7119  7061    2
  3551  4821  4838    1
  3552   173   212    1
  3553  2476  2449    1
  3554  2476  3046   ar
  3555  6465  6504    1
  3556   262   257   ar
  3557  8768  8741    1
  3558  4188  4216    1
  3559  4188  6483   ar
  3560  6554  6549   ar
  3561  7681  7698    1
  3562  3033  3072    1
  3563  5336  5309    1
  3564  5336  5906   ar
  3565   756   784    1
  3566   756  3051   ar
  3567  3122  3117   ar
  3568  5893  5932    1
  3569  8196  8169    1
  3570  8196  8766   ar
  3571  3616  3644    1
  3572  3616  5911   ar
  3573  5982  5977   ar
  3574  7109  7126    1
  3575  2461  2500    1
  3576  4764  4737    1
  3577  4764  5334   ar
  3578   184   212    1
  3579   184  2479   ar
  3580  8753  8792    1
  3581  2550  2545   ar
  3582  6476  6504    1
  3583  6476  8771   ar
  3584  8842  8837   ar
  3585  5321  5360    1
  3586  7624  7597    1
  3587  7624  8194   ar
  3588  3044  3072    1
  3589  3044  5339   ar
  3590  5410  5405   ar
  3591  8181  8220    1
  3592  5904  5932    1
  3593  5904  8199   ar
  3594  8270  8265   ar
  3595  4749  4788    1
  3596  7052  7025    1
  3597  7052  7622   ar
  3598  2472  2500    1
  3599  2472  4767   ar
  3600  4838  4833   ar
  3601  8764  8792    1
  3602  1897  1907    2
  3603  1897  1893    1
  3604  7609  7648    1
  3605  5332  5360    1
  3606  5332  7627   ar
  3607  7698  7693   ar
  3608  8192  8220    1
  3609  1325  1335    2
  3610  1325  1321    1
  3611  7037  7076    1
  3612  4760  4788    1
  3613  4760  7055   ar
  3614  1979  1962    1
  3615  1979  1969   ar
  3616  7126  7121   ar
  3617  4185  4195   ar
  3618  4185  4181    1
  3619  7620  7648    1
  3620   753   763    2
  3621   753   749    1
  3622  1913  1981    1
  3623  1913  1982    1
  3624  1898  1902   ar
  3625  1898  1894    1
  3626  1407  1390    1
  3627  1407  1397   ar
  3628  3613  3623   ar
  3629  3613  3609    1
  3630  7048  7076    1
  3631  4267  4250    1
  3632  4267  4257   ar
  3633   181   191    2
  3634   181   177    1
  3635  1341  1409    1
  3636  1341  1410    1
  3637  6473  6483   ar
  3638  6473  6469    1
  3639  1326  1330   ar
  3640  1326  1322    1
  3641   835   818    1
  3642   835   825   ar
  3643  3041  3051   ar
  3644  3041  3037    1
  3645  4201  4269    1
  3646  4201  4270    1
  3647  4186  4190   ar
  3648  4186  4182    1
  3649  3695  3678    1
  3650  3695  3685   ar
  3651   769   837    1
  3652   769   838    1
  3653  5901  5911   ar
  3654  5901  5897    1
  3655   754   758   ar
  3656   754   750    1
  3657   263   246    1
  3658   263   253   ar
  3659  1928  1888    1
  3660  6555  6538    1
  3661  6555  6545   ar
  3662  2469  2479   ar
  3663  2469  2465    1
  3664  3629  3697    1
  3665  3629  3698    1
  3666  8761  8771   ar
  3667  8761  8757    1
  3668  3614  3618   ar
  3669  3614  3610    1
  3670  3123  3106    1
  3671  3123  3113   ar
  3672   197   265    1
  3673   197   266    1
  3674  5329  5339   ar
  3675  5329  5325    1
  3676  6489  6557    1
  3677  6489  6558    1
  3678   182   186    2
  3679   182   178    1
  3680  6474  6478   ar
  3681  6474  6470    1
  3682  1356  1316    1
  3683  5983  5966    1
  3684  5983  5973   ar
  3685  3057  3125    1
  3686  3057  3126    1
  3687  8189  8199   ar
  3688  8189  8185    1
  3689  3042  3046   ar
  3690  3042  3038    1
  3691  2551  2534    1
  3692  2551  2541   ar
  3693  4216  4176    1
  3694  8843  8826    1
  3695  8843  8833   ar
  3696  4757  4767   ar
  3697  4757  4753    1
  3698  5917  5985    1
  3699  5917  5986    1
  3700  5902  5906   ar
  3701  5902  5898    1
  3702   784   744    1
  3703  5411  5394    1
  3704  5411  5401   ar
  3705  2485  2553    1
  3706  2485  2554    1
  3707  7617  7627   ar
  3708  7617  7613    1
  3709  8777  8845    1
  3710  8777  8846    1
  3711  2470  2474    2
  3712  2470  2466    1
  3713  8762  8766   ar
  3714  8762  8758    1
  3715  3644  3604    1
  3716  8271  8254    1
  3717  8271  8261   ar
  3718  5345  5413    1
  3719  5345  5414    1
  3720  1973  1969   ar
  3721  1973  1958    1
  3722  5330  5334   ar
  3723  5330  5326    1
  3724   212   172    1
  3725  1981  1866    1
  3726  4839  4822    1
  3727  4839  4829   ar
  3728  6504  6464    1
  3729  7045  7055   ar
  3730  7045  7041    1
  3731  8205  8273    1
  3732  8205  8274    1
  3733  8190  8194   ar
  3734  8190  8186    1
  3735  3072  3032    1
  3736  7699  7682    1
  3737  7699  7689   ar
  3738  4773  4841    1
  3739  4773  4842    1
  3740  1401  1397   ar
  3741  1401  1386    1
  3742  4758  4762    2
  3743  4758  4754    1
  3744  1409  1294    1
  3745  5932  5892    1
  3746  7633  7701    1
  3747  7633  7702    1
  3748  1907  1878    1
  3749  1982  1862    1
  3750  4261  4257   ar
  3751  4261  4246    1
  3752  7618  7622   ar
  3753  7618  7614    1
  3754  2500  2460    1
  3755  4269  4154    1
  3756  7127  7110    1
  3757  7127  7117   ar
  3758  8792  8752    1
  3759   829   825   ar
  3760   829   814    1
  3761   837   722    1
  3762  5360  5320    1
  3763  7061  7129    1
  3764  7061  7130    1
  3765  1335  1306    1
  3766  1410  1290    1
  3767  3689  3685   ar
  3768  3689  3674    1
  3769  7046  7050    2
  3770  7046  7042    1
  3771  3697  3582    1
  3772  1931  1893    1
  3773  1931  1866    1
  3774  8220  8180    1
  3775  1902  1929    1
  3776   257   253   ar
  3777   257   242    1
  3778  4195  4166    1
  3779  4270  4150    1
  3780  6549  6545   ar
  3781  6549  6534    1
  3782   265   150    1
  3783  4788  4748    1
  3784  6557  6442    1
  3785   763   734    1
  3786   838   718    1
  3787  3117  3113   ar
  3788  3117  3102    1
  3789  1969  1964    1
  3790  3125  3010    1
  3791  1359  1321    1
  3792  1359  1294    1
  3793  7648  7608    1
  3794  1330  1357    1
  3795  3623  3594    1
  3796  3698  3578    1
  3797  5977  5973   ar
  3798  5977  5962    1
  3799  5985  5870    1
  3800   191   162    1
  3801  4219  4181    1
  3802  4219  4154    1
  3803   266   146    1
  3804  1935  1894    1
  3805  1935  1862    1
  3806  4190  4217    1
  3807  2545  2541   ar
  3808  2545  2530    1
  3809  6483  6454    1
  3810  1397  1392    1
  3811  6558  6438    1
  3812  8837  8833   ar
  3813  8837  8822    1
  3814  2553  2438    1
  3815   787   749    1
  3816   787   722    1
  3817  7076  7036    1
  3818  8845  8730    1
  3819   758   785    1
  3820  3051  3022    1
  3821  3126  3006    1
  3822  5405  5401   ar
  3823  5405  5390    1
  3824  4257  4252    1
  3825  5413  5298    1
  3826  3647  3609    1
  3827  3647  3582    1
  3828  1363  1322    1
  3829  1363  1290    1
  3830  3618  3645    1
  3831  5911  5882    1
  3832   825   820    1
  3833  5986  5866    1
  3834  8265  8261   ar
  3835  8265  8250    1
  3836   215   177    1
  3837   215   150    1
  3838  8273  8158    1
  3839   186   213    1
  3840  2479  2450    1
  3841  6507  6469    1
  3842  6507  6442    1
  3843  2554  2434    1
  3844  4223  4182    1
  3845  4223  4150    1
  3846  6478  6505    1
  3847  4833  4829   ar
  3848  4833  4818    1
  3849  8771  8742    1
  3850  3685  3680    1
  3851  8846  8726    1
  3852  4841  4726    1
  3853  3075  3037    1
  3854  3075  3010    1
  3855   791   750    1
  3856   791   718    1
  3857  3046  3073    1
  3858  5339  5310    1
  3859   253   248    1
  3860  5414  5294    1
  3861  7693  7689   ar
  3862  7693  7678    1
  3863  6545  6540    1
  3864  7701  7586    1
  3865  5935  5897    1
  3866  5935  5870    1
  3867  3651  3610    1
  3868  3651  3578    1
  3869  5906  5933    1
  3870  8199  8170    1
  3871  3113  3108    1
  3872  8274  8154    1
  3873  2503  2465    1
  3874  2503  2438    1
  3875   219   178    1
  3876   219   146    1
  3877  2474  2501    1
  3878  4767  4738    1
  3879  8795  8757    1
  3880  8795  8730    1
  3881  4842  4722    1
  3882  6511  6470    1
  3883  6511  6438    1
  3884  8766  8793    1
  3885  7121  7117   ar
  3886  7121  7106    1
  3887  5973  5968    1
  3888  7129  7014    1
  3889  5363  5325    1
  3890  5363  5298    1
  3891  3079  3038    1
  3892  3079  3006    1
  3893  5334  5361    1
  3894  7627  7598    1
  3895  2541  2536    1
  3896  7702  7582    1
  3897  8833  8828    1
  3898  8223  8185    1
  3899  8223  8158    1
  3900  5939  5898    1
  3901  5939  5866    1
  3902  8194  8221    1
  3903  5401  5396    1
  3904  4791  4753    1
  3905  4791  4726    1
  3906  2507  2466    1
  3907  2507  2434    1
  3908  4762  4789    1
  3909  7055  7026    1
  3910  7130  7010    1
  3911  8799  8758    1
  3912  8799  8726    1
  3913  8261  8256    1
  3914  7651  7613    1
  3915  7651  7586    1
  3916  5367  5326    1
  3917  5367  5294    1
  3918  7622  7649    1
  3919  4829  4824    1
  3920  1893  1937    1
  3921  8227  8186    1
  3922  8227  8154    1
  3923  7689  7684    1
  3924  7079  7041    1
  3925  7079  7014    1
  3926  4795  4754    1
  3927  4795  4722    1
  3928  7050  7077    1
  3929  1321  1365    1
  3930  7655  7614    1
  3931  7655  7582    1
  3932  7117  7112    1
  3933  4181  4225    1
  3934  1894  1932    1
  3935   749   793    1
  3936  7083  7042    1
  3937  7083  7010    1
  3938  3609  3653    1
  3939  1322  1360    1
  3940   177   221    1
  3941  6469  6513    1
  3942  4182  4220    1
  3943  3037  3081    1
  3944   750   788    1
  3945  5897  5941    1
  3946  3610  3648    1
  3947  2465  2509    1
  3948  8757  8801    1
  3949   178   216    1
  3950  6470  6508    1
  3951  5325  5369    1
  3952  3038  3076    1
  3953  8185  8229    1
  3954  5898  5936    1
  3955  4753  4797    1
  3956  2466  2504    1
  3957  8758  8796    1
  3958  7613  7657    1
  3959  5326  5364    1
  3960  8186  8224    1
  3961  7041  7085    1
  3962  4754  4792    1
  3963  7614  7652    1
  3964  7042  7080    1
  3965  1929  1890    1
  3966  1929  1891    1
  3967  1866  1955    1
  3968  1866  1939    1
  3969  1866  1941    1
  3970  1357  1318    1
  3971  1357  1319    1
  3972  1294  1383    1
  3973  1294  1367    1
  3974  1294  1369    1
  3975  4217  4178    1
  3976  4217  4179    1
  3977  1862  1944    1
  3978  1862  1942    1
  3979   785   746    1
  3980   785   747    1
  3981  4154  4243    1
  3982  4154  4227    1
  3983  4154  4229    1
  3984   722   811    1
  3985   722   795    1
  3986   722   797    1
  3987  3645  3606    1
  3988  3645  3607    1
  3989  1290  1372    1
  3990  1290  1370    1
  3991   213   174    1
  3992   213   175    1
  3993  3582  3671    1
  3994  3582  3655    1
  3995  3582  3657    1
  3996  6505  6466    1
  3997  6505  6467    1
  3998  4150  4232    1
  3999  4150  4230    1
  4000   150   239    1
  4001   150   223    1
  4002   150   225    1
  4003  3073  3034    1
  4004  3073  3035    1
  4005  6442  6531    1
  4006  6442  6515    1
  4007  6442  6517    1
  4008   718   800    1
  4009   718   798    1
  4010  3010  3099    1
  4011  3010  3083    1
  4012  3010  3085    1
  4013  5933  5894    1
  4014  5933  5895    1
  4015  3578  3660    1
  4016  3578  3658    1
  4017  2501  2462    1
  4018  2501  2463    1
  4019  5870  5959    1
  4020  5870  5943    1
  4021  5870  5945    1
  4022  8793  8754    1
  4023  8793  8755    1
  4024   146   228    1
  4025   146   226    1
  4026  1937  1860    1
  4027  6438  6520    1
  4028  6438  6518    1
  4029  2438  2527    1
  4030  2438  2511    1
  4031  2438  2513    1
  4032  5361  5322    1
  4033  5361  5323    1
  4034  8730  8819    1
  4035  8730  8803    1
  4036  8730  8805    1
  4037  3006  3088    1
  4038  3006  3086    1
  4039  5298  5387    1
  4040  5298  5371    1
  4041  5298  5373    1
  4042  8221  8182    1
  4043  8221  8183    1
  4044  1365  1288    1
  4045  5866  5948    1
  4046  5866  5946    1
  4047  4789  4750    1
  4048  4789  4751    1
  4049  8158  8247    1
  4050  8158  8231    1
  4051  8158  8233    1
  4052  2434  2516    1
  4053  2434  2514    1
  4054  4225  4148    1
  4055  8726  8808    1
  4056  8726  8806    1
  4057  4726  4815    1
  4058  4726  4799    1
  4059  4726  4801    1
  4060  7649  7610    1
  4061  7649  7611    1
  4062   793   716    1
  4063  5294  5376    1
  4064  5294  5374    1
  4065  1932  1865    1
  4066  7586  7675    1
  4067  7586  7659    1
  4068  7586  7661    1
  4069  3653  3576    1
  4070  8154  8236    1
  4071  8154  8234    1
  4072  7077  7038    1
  4073  7077  7039    1
  4074   221   144    1
  4075  1886  1927    1
  4076  4722  4804    1
  4077  4722  4802    1
  4078  6513  6436    1
  4079  1360  1293    1
  4080  7014  7103    1
  4081  7014  7087    1
  4082  7014  7089    1
  4083  3081  3004    1
  4084  7582  7664    1
  4085  7582  7662    1
  4086  4220  4153    1
  4087  1314  1355    1
  4088  5941  5864    1
  4089   788   721    1
  4090  2509  2432    1
  4091  4174  4215    1
  4092  7010  7092    1
  4093  7010  7090    1
  4094  8801  8724    1
  4095  3648  3581    1
  4096   742   783    1
  4097  5369  5292    1
  4098   216   149    1
  4099  6508  6441    1
  4100  3602  3643    1
  4101  8229  8152    1
  4102  3076  3009    1
  4103   170   211    1
  4104  4797  4720    1
  4105  6462  6503    1
  4106  5936  5869    1
  4107  3030  3071    1
  4108  7657  7580    1
  4109  2504  2437    1
  4110  8796  8729    1
  4111  5890  5931    1
  4112  5364  5297    1
  4113  1955  1885    1
  4114  2458  2499    1
  4115  7085  7008    1
  4116  8750  8791    1
  4117  8224  8157    1
  4118  5318  5359    1
  4119  4792  4725    1
  4120  1383  1313    1
  4121  8178  8219    1
  4122  1939  1860    1
  4123  7652  7585    1
  4124  4243  4173    1
  4125  4746  4787    1
  4126   811   741    1
  4127  7606  7647    1
  4128  1367  1288    1
  4129  7080  7013    1
  4130  3671  3601    1
  4131   239   169    1
  4132  4227  4148    1
  4133  6531  6461    1
  4134  7034  7075    1
  4135   795   716    1
  4136  3099  3029    1
  4137  1944  1865    1
  4138  3655  3576    1
  4139  5959  5889    1
  4140   223   144    1
  4141  2527  2457    1
  4142  6515  6436    1
  4143  1372  1293    1
  4144  8819  8749    1
  4145  1852  1846    1
  4146  3083  3004    1
  4147  5387  5317    1
  4148  4232  4153    1
  4149  5943  5864    1
  4150   800   721    1
  4151  8247  8177    1
  4152  1280  1274    1
  4153  2511  2432    1
  4154  4815  4745    1
  4155  1854  1846    1
  4156  8803  8724    1
  4157  3660  3581    1
  4158  4140  4134    1
  4159  5371  5292    1
  4160   228   149    1
  4161  7675  7605    1
  4162  6520  6441    1
  4163   708   702    1
  4164  1282  1274    1
  4165  8231  8152    1
  4166  3088  3009    1
  4167  3568  3562    1
  4168  4799  4720    1
  4169  7103  7033    1
  4170  4142  4134    1
  4171  5948  5869    1
  4172   136   130    1
  4173   710   702    1
  4174  6428  6422    1
  4175  7659  7580    1
  4176  2516  2437    1
  4177  8808  8729    1
  4178  2996  2990    1
  4179  3570  3562    1
  4180  5376  5297    1
  4181  1887  1927    1
  4182   138   130    1
  4183  5856  5850    1
  4184  7087  7008    1
  4185  6430  6422    1
  4186  8236  8157    1
  4187  1927  1922    1
  4188  2424  2418    1
  4189  2998  2990    1
  4190  8716  8710    1
  4191  4804  4725    1
  4192  1315  1355    1
  4193  1941  1860    1
  4194  5284  5278    1
  4195  5858  5850    1
  4196  7664  7585    1
  4197  4175  4215    1
  4198  1355  1350    1
  4199  2426  2418    1
  4200  8144  8138    1
  4201   743   783    1
  4202  8718  8710    1
  4203  4215  4210    1
  4204  1369  1288    1
  4205  4712  4706    1
  4206  5286  5278    1
  4207  7092  7013    1
  4208  3603  3643    1
  4209   783   778    1
  4210  4229  4148    1
  4211  7572  7566    1
  4212   171   211    1
  4213  1942  1865    1
  4214  8146  8138    1
  4215  6463  6503    1
  4216  3643  3638    1
  4217   797   716    1
  4218  4714  4706    1
  4219  3031  3071    1
  4220   211   206    1
  4221  6503  6498    1
  4222  3657  3576    1
  4223  7000  6994    1
  4224  1370  1293    1
  4225  7574  7566    1
  4226  5891  5931    1
  4227  3071  3066    1
  4228   225   144    1
  4229  6517  6436    1
  4230  2459  2499    1
  4231  4230  4153    1
  4232  8751  8791    1
  4233  5931  5926    1
  4234  3085  3004    1
  4235   798   721    1
  4236  7002  6994    1
  4237  5319  5359    1
  4238  2499  2494    1
  4239  8791  8786    1
  4240  5945  5864    1
  4241  3658  3581    1
  4242  8179  8219    1
  4243  1849  1843    1
  4244  5359  5354    1
  4245  2513  2432    1
  4246   226   149    1
  4247  8805  8724    1
  4248  1870  1921    1
  4249  4747  4787    1
  4250  6518  6441    1
  4251  8219  8214    1
  4252  5373  5292    1
  4253  3086  3009    1
  4254  7607  7647    1
  4255  1277  1271    1
  4256  4787  4782    1
  4257  8233  8152    1
  4258  1298  1349    1
  4259  5946  5869    1
  4260  4137  4131    1
  4261  7647  7642    1
  4262  4801  4720    1
  4263  1846  1857    1
  4264  1846  1841    1
  4265  2514  2437    1
  4266  4158  4209    1
  4267  7035  7075    1
  4268  8806  8729    1
  4269   705   699    1
  4270  7661  7580    1
  4271   726   777    1
  4272  5374  5297    1
  4273  3565  3559    1
  4274  7075  7070    1
  4275  1872  1924    1
  4276  1274  1285    1
  4277  1274  1269    1
  4278  3586  3637    1
  4279  8234  8157    1
  4280   133   127    1
  4281  6425  6419    1
  4282  1868  1919    1
  4283  7089  7008    1
  4284   154   205    1
  4285  4134  4145    1
  4286  4134  4129    1
  4287  4802  4725    1
  4288  6446  6497    1
  4289  2993  2987    1
  4290  1300  1352    1
  4291   702   713    1
  4292   702   697    1
  4293  3014  3065    1
  4294  7662  7585    1
  4295  5853  5847    1
  4296  4160  4212    1
  4297  1296  1347    1
  4298  3562  3573    1
  4299  3562  3557    1
  4300  5874  5925    1
  4301  2421  2415    1
  4302   728   780    1
  4303  8713  8707    1
  4304   130   141    1
  4305   130   125    1
  4306  4156  4207    1
  4307  2442  2493    1
  4308  6422  6433    1
  4309  6422  6417    1
  4310  7090  7013    1
  4311  8734  8785    1
  4312  5281  5275    1
  4313  3588  3640    1
  4314   724   775    1
  4315  2990  3001    1
  4316  2990  2985    1
  4317  5302  5353    1
  4318   156   208    1
  4319  8141  8135    1
  4320  6448  6500    1
  4321  3584  3635    1
  4322  5850  5861    1
  4323  5850  5845    1
  4324  8162  8213    1
  4325  4709  4703    1
  4326  3016  3068    1
  4327   152   203    1
  4328  2418  2429    1
  4329  2418  2413    1
  4330  6444  6495    1
  4331  4730  4781    1
  4332  8710  8721    1
  4333  8710  8705    1
  4334  7569  7563    1
  4335  5876  5928    1
  4336  3012  3063    1
  4337  5278  5289    1
  4338  5278  5273    1
  4339  7590  7641    1
  4340  1860  1951    1
  4341  1860  1953    1
  4342  2444  2496    1
  4343  8736  8788    1
  4344  5872  5923    1
  4345  8138  8149    1
  4346  8138  8133    1
  4347  6997  6991    1
  4348  5304  5356    1
  4349  2440  2491    1
  4350  4706  4717    1
  4351  4706  4701    1
  4352  8732  8783    1
  4353  7018  7069    1
  4354  1288  1379    1
  4355  1288  1381    1
  4356  8164  8216    1
  4357  5300  5351    1
  4358  7566  7577    1
  4359  7566  7561    1
  4360  4148  4239    1
  4361  4148  4241    1
  4362  4732  4784    1
  4363  8160  8211    1
  4364   716   807    1
  4365   716   809    1
  4366  7592  7644    1
  4367  4728  4779    1
  4368  1865  1948    1
  4369  1865  1946    1
  4370  1865  2099    1
  4371  6994  7005    1
  4372  6994  6989    1
  4373  3576  3667    1
  4374  3576  3669    1
  4375  7588  7639    1
  4376   144   235    1
  4377   144   237    1
  4378  6436  6527    1
  4379  6436  6529    1
  4380  7020  7072    1
  4381  1293  1376    1
  4382  1293  1374    1
  4383  1293  1527    1
  4384  3004  3095    1
  4385  3004  3097    1
  4386  7016  7067    1
  4387  4153  4236    1
  4388  4153  4234    1
  4389  4153  4387    1
  4390  5864  5955    1
  4391  5864  5957    1
  4392   721   804    1
  4393   721   802    1
  4394   721   955    1
  4395  2432  2523    1
  4396  2432  2525    1
  4397  8724  8815    1
  4398  8724  8817    1
  4399  3581  3664    1
  4400  3581  3662    1
  4401  3581  3815    1
  4402  5292  5383    1
  4403  5292  5385    1
  4404   149   232    1
  4405   149   230    1
  4406   149   383    1
  4407  6441  6524    1
  4408  6441  6522    1
  4409  6441  6675    1
  4410  8152  8243    1
  4411  8152  8245    1
  4412  3009  3092    1
  4413  3009  3090    1
  4414  3009  3243    1
  4415  4720  4811    1
  4416  4720  4813    1
  4417  5869  5952    1
  4418  5869  5950    1
  4419  5869  6103    1
  4420  7580  7671    1
  4421  7580  7673    1
  4422  2437  2520    1
  4423  2437  2518    1
  4424  2437  2671    1
  4425  8729  8812    1
  4426  8729  8810    1
  4427  8729  8963    1
  4428  5297  5380    1
  4429  5297  5378    1
  4430  5297  5531    1
  4431  7008  7099    1
  4432  7008  7101    1
  4433  8157  8240    1
  4434  8157  8238    1
  4435  8157  8391    1
  4436  4725  4808    1
  4437  4725  4806    1
  4438  4725  4959    1
  4439  7585  7668    1
  4440  7585  7666    1
  4441  7585  7819    1
  4442  1921  2054    1
  4443  1922  4209   ar
  4444  1922  2053   ar
  4445  7013  7096    1
  4446  7013  7094    1
  4447  7013  7247    1
  4448  1843  1841    1
  4449  1843  1844    2
  4450  1349  1482    1
  4451  1350  3637   ar
  4452  1350  1481   ar
  4453  4209  4342   ar
  4454  1271  1269    1
  4455  1271  1272    2
  4456  4210  6497   ar
  4457  4210  4341   ar
  4458   777   910    1
  4459   778  3065   ar
  4460   778   909   ar
  4461  4131  4129    1
  4462  4131  4132    2
  4463  1951  2060    1
  4464  3637  3770   ar
  4465   699   697    1
  4466   699   700    2
  4467  3638  5925   ar
  4468  3638  3769   ar
  4469  1919  2052    1
  4470  1924  1347   ar
  4471  1924  2051   ar
  4472   205   338    1
  4473  6497  6630   ar
  4474   206  2493   ar
  4475   206   337   ar
  4476  3559  3557    1
  4477  3559  3560    2
  4478  1379  1488    1
  4479  6498  8785   ar
  4480  6498  6629   ar
  4481  3065  3198   ar
  4482  1948  2059    1
  4483  1946  2057    1
  4484   127   125    1
  4485   127   128    2
  4486  1953  2058    1
  4487  3066  5353   ar
  4488  3066  3197   ar
  4489  1347  1480   ar
  4490  1352   775   ar
  4491  1352  1479   ar
  4492  6419  6417    1
  4493  6419  6420    2
  4494  4239  4348    1
  4495  1841  1847    1
  4496  5925  6058   ar
  4497  2987  2985    1
  4498  2987  2988    2
  4499   807   916    1
  4500  5926  8213   ar
  4501  5926  6057   ar
  4502  4207  4340    1
  4503  4212  3635   ar
  4504  4212  4339   ar
  4505  2493  2626   ar
  4506  1376  1487    1
  4507  1374  1485    1
  4508  8785  8918   ar
  4509  1381  1486    1
  4510  2494  4781   ar
  4511  2494  2625   ar
  4512   775   908   ar
  4513   780   203   ar
  4514   780   907   ar
  4515  5847  5845    1
  4516  5847  5848    2
  4517  3667  3776    1
  4518  8786  8917    1
  4519  1269  1275    1
  4520  5353  5486   ar
  4521  4236  4347    1
  4522  4234  4345    1
  4523  2415  2413    1
  4524  2415  2416    2
  4525   235   344    1
  4526  4241  4346    1
  4527  5354  7641   ar
  4528  5354  5485   ar
  4529  3635  3768   ar
  4530  3640  3063   ar
  4531  3640  3767   ar
  4532  8707  8705    1
  4533  8707  8708    2
  4534  6527  6636    1
  4535   804   915    1
  4536  4129  4135    1
  4537   802   913    1
  4538  8213  8346   ar
  4539   809   914    1
  4540   203   336   ar
  4541   208   335    1
  4542  5275  5273    1
  4543  5275  5276    2
  4544  3095  3204    1
  4545  8214  8345    1
  4546  6495  6628    1
  4547   697   703    1
  4548  6500  5923   ar
  4549  6500  6627   ar
  4550  4781  4914   ar
  4551  3664  3775    1
  4552  3662  3773    1
  4553  3669  3774    1
  4554  4782  7069   ar
  4555  4782  4913   ar
  4556  3063  3196   ar
  4557  3068  2491   ar
  4558  3068  3195   ar
  4559  8135  8133    1
  4560  8135  8136    2
  4561  5955  6064    1
  4562   232   343    1
  4563  3557  3563    1
  4564   230   341    1
  4565  7641  7774   ar
  4566  6524  6635    1
  4567   237   342    1
  4568  6522  6633    1
  4569  4703  4701    1
  4570  4703  4704    2
  4571  2523  2632    1
  4572  6529  6634    1
  4573  7642  7773    1
  4574  5923  6056   ar
  4575   125   131    1
  4576  5928  5351   ar
  4577  5928  6055   ar
  4578  8815  8924    1
  4579  3092  3203    1
  4580  6417  6423    1
  4581  3090  3201    1
  4582  3097  3202    1
  4583  2491  2624   ar
  4584  2496  2623    1
  4585  7563  7561    1
  4586  7563  7564    2
  4587  5383  5492    1
  4588  8783  8916    1
  4589  2985  2991    1
  4590  8788  8211   ar
  4591  8788  8915   ar
  4592  7069  7202   ar
  4593  5952  6063    1
  4594  5950  6061    1
  4595  5957  6062    1
  4596  7070  7201    1
  4597  5351  5484   ar
  4598  5356  4779   ar
  4599  5356  5483   ar
  4600  8243  8352    1
  4601  2520  2631    1
  4602  5845  5851    1
  4603  2518  2629    1
  4604  8812  8923    1
  4605  2525  2630    1
  4606  8810  8921    1
  4607  6991  6989    1
  4608  6991  6992    2
  4609  4811  4920    1
  4610  8817  8922    1
  4611  8211  8344   ar
  4612  2413  2419    1
  4613  8216  7639   ar
  4614  8216  8343   ar
  4615  5380  5491    1
  4616  8705  8711    1
  4617  5378  5489    1
  4618  5385  5490    1
  4619  4779  4912   ar
  4620  4784  4911    1
  4621  7671  7780    1
  4622  5273  5279    1
  4623  8240  8351    1
  4624  8238  8349    1
  4625  8245  8350    1
  4626  7639  7772   ar
  4627  7644  7067   ar
  4628  7644  7771   ar
  4629  4808  4919    1
  4630  8133  8139    1
  4631  4806  4917    1
  4632  4813  4918    1
  4633  7099  7208    1
  4634  4701  4707    1
  4635  7668  7779    1
  4636  7666  7777    1
  4637  7673  7778    1
  4638  7067  7200   ar
  4639  7072  7199    1
  4640  7561  7567    1
  4641  7096  7207    1
  4642  7094  7205    1
  4643  7101  7206    1
  4644  6989  6995    1
  4645  2017  2100    1
  4646  2054  2060    2
  4647  2054  2066    1
  4648  2053  2059    1
  4649  2053  2063   ar
  4650  1445  1528    1
  4651  2100  2007    1
  4652  2060  2092    1
  4653  4305  4388    1
  4654  1482  1488    2
  4655  1482  1494    1
  4656  1844  1850    1
  4657  1844  1842    1
  4658  2059  2093    1
  4659  1481  1487    1
  4660  1481  1491   ar
  4661   873   956    1
  4662  1528  1435    1
  4663  1488  1520    1
  4664  4342  4348    1
  4665  4342  4354   ar
  4666  4341  4347    1
  4667  4341  4351   ar
  4668  3733  3816    1
  4669  4388  4295    1
  4670   910   916    2
  4671   910   922    1
  4672  4348  4380    1
  4673  1272  1278    1
  4674  1272  1270    1
  4675  2057  2051    1
  4676  2057  2095    1
  4677  1487  1521    1
  4678   909   915    1
  4679   909   919   ar
  4680   301   384    1
  4681  2058  2052    2
  4682  2058  2090    1
  4683   956   863    1
  4684   916   948    1
  4685  6593  6676    1
  4686  2051  2061   ar
  4687  3770  3776    1
  4688  3770  3782   ar
  4689  4132  4138    1
  4690  4132  4130    1
  4691  4347  4381    1
  4692  3769  3775    1
  4693  3769  3779   ar
  4694  3161  3244    1
  4695  3816  3723    1
  4696   338   344    2
  4697   338   350    1
  4698  2052  2068    1
  4699  3776  3808    1
  4700   700   706    1
  4701   700   698    1
  4702  1485  1479    1
  4703  1485  1523    1
  4704  6630  6636    1
  4705  6630  6642   ar
  4706   915   949    1
  4707   337   343    1
  4708   337   347   ar
  4709  1486  1480    1
  4710  1486  1518    1
  4711  2099  2018    1
  4712   384   291    1
  4713   344   376    1
  4714  6629  6635    1
  4715  6629  6639   ar
  4716  6021  6104    1
  4717  1479  1489   ar
  4718  6676  6583    1
  4719  3198  3204    1
  4720  3198  3210   ar
  4721  6636  6668    1
  4722  3560  3566    1
  4723  3560  3558    1
  4724  4345  4339    1
  4725  4345  4383    1
  4726  3775  3809    1
  4727  3197  3203    1
  4728  3197  3207   ar
  4729  2589  2672    1
  4730  4346  4340    2
  4731  4346  4378    1
  4732  3244  3151    1
  4733  1480  1496   ar
  4734  3204  3236    1
  4735  8881  8964    1
  4736   128   134    1
  4737   128   126    1
  4738  4339  4349   ar
  4739   913   907    1
  4740   913   951    1
  4741  6058  6064    1
  4742  6058  6070   ar
  4743   343   377    1
  4744  6420  6426    1
  4745  6420  6418    1
  4746  6635  6669    1
  4747   914   908    1
  4748   914   946    1
  4749  1527  1446    1
  4750  6057  6063    1
  4751  6057  6067   ar
  4752  5449  5532    1
  4753   907   917   ar
  4754  6104  6011    1
  4755  2626  2632    1
  4756  2626  2638   ar
  4757  4340  4356    1
  4758  6064  6096    1
  4759  2988  2994    1
  4760  2988  2986    1
  4761  3773  3767    1
  4762  3773  3811    1
  4763  8918  8924    1
  4764  8918  8930   ar
  4765  3203  3237    1
  4766  2625  2631    1
  4767  2625  2635   ar
  4768  3774  3768    1
  4769  3774  3806    1
  4770  4387  4306    1
  4771  2672  2579    1
  4772   908   924   ar
  4773  2632  2664    1
  4774  8917  8923    2
  4775  8917  8927    1
  4776  8309  8392    1
  4777  3767  3777   ar
  4778   341   335    2
  4779   341   379    1
  4780  8964  8871    1
  4781  5486  5492    1
  4782  5486  5498   ar
  4783  8924  8956    1
  4784  5848  5854    1
  4785  5848  5846    1
  4786  6633  6627    1
  4787  6633  6671    1
  4788  6063  6097    1
  4789   342   336    1
  4790   342   374    1
  4791   955   874    1
  4792  5485  5491    1
  4793  5485  5495   ar
  4794  4877  4960    1
  4795  6634  6628    2
  4796  6634  6666    1
  4797   335   345    1
  4798  5532  5439    1
  4799  3768  3784   ar
  4800  5492  5524    1
  4801  1847  1858    1
  4802  1847  1842    1
  4803  2416  2422    1
  4804  2416  2414    1
  4805  6627  6637   ar
  4806  3201  3195    1
  4807  3201  3239    1
  4808  8346  8352    1
  4809  8346  8358   ar
  4810  2631  2665    1
  4811  8708  8714    1
  4812  8708  8706    1
  4813  8923  8957    1
  4814  3202  3196    1
  4815  3202  3234    1
  4816  3815  3734    1
  4817   336   352   ar
  4818  8345  8351    2
  4819  8345  8355    1
  4820  7737  7820    1
  4821  3195  3205   ar
  4822  8392  8299    1
  4823  4914  4920    1
  4824  4914  4926   ar
  4825  6628  6644    1
  4826  8352  8384    1
  4827  5276  5282    1
  4828  5276  5274    1
  4829  6061  6055    1
  4830  6061  6099    1
  4831  5491  5525    1
  4832   383   302    1
  4833  4913  4919    1
  4834  4913  4923   ar
  4835  6062  6056    1
  4836  6062  6094    1
  4837  6675  6594    1
  4838  4960  4867    1
  4839  3196  3212   ar
  4840  4920  4952    1
  4841  1275  1286    1
  4842  1275  1270    1
  4843  6055  6065   ar
  4844  2629  2623    2
  4845  2629  2667    1
  4846  7774  7780    1
  4847  7774  7786   ar
  4848  8136  8142    1
  4849  8136  8134    1
  4850  8921  8915    1
  4851  8921  8959    1
  4852  8351  8385    1
  4853  2630  2624    1
  4854  2630  2662    1
  4855  3243  3162    1
  4856  7773  7779    2
  4857  7773  7783    1
  4858  7165  7248    1
  4859  8922  8916    2
  4860  8922  8954    1
  4861  2623  2633    1
  4862  7820  7727    1
  4863  6056  6072   ar
  4864  7780  7812    1
  4865  4135  4146    1
  4866  4135  4130    1
  4867  4704  4710    1
  4868  4704  4702    1
  4869  8915  8925   ar
  4870  5489  5483    1
  4871  5489  5527    1
  4872  4919  4953    1
  4873  5490  5484    1
  4874  5490  5522    1
  4875  6103  6022    1
  4876  2624  2640   ar
  4877   703   714    1
  4878   703   698    1
  4879  5483  5493   ar
  4880  7202  7208    1
  4881  7202  7214   ar
  4882  8916  8932    1
  4883  7564  7570    1
  4884  7564  7562    1
  4885  8349  8343    1
  4886  8349  8387    1
  4887  7779  7813    1
  4888  2671  2590    1
  4889  7201  7207    2
  4890  7201  7211    1
  4891  8350  8344    1
  4892  8350  8382    1
  4893  8963  8882    1
  4894  7248  7155    1
  4895  5484  5500   ar
  4896  7208  7240    1
  4897  3563  3574    1
  4898  3563  3558    1
  4899  8343  8353   ar
  4900  4917  4911    2
  4901  4917  4955    1
  4902  4918  4912    1
  4903  4918  4950    1
  4904  5531  5450    1
  4905   131   142    1
  4906   131   126    1
  4907  4911  4921    1
  4908  8344  8360   ar
  4909  6423  6434    1
  4910  6423  6418    1
  4911  6992  6998    1
  4912  6992  6990    1
  4913  7777  7771    1
  4914  7777  7815    1
  4915  7207  7241    1
  4916  7778  7772    1
  4917  7778  7810    1
  4918  8391  8310    1
  4919  4912  4928   ar
  4920  2991  3002    1
  4921  2991  2986    1
  4922  7771  7781   ar
  4923  4959  4878    1
  4924  7772  7788   ar
  4925  5851  5862    1
  4926  5851  5846    1
  4927  7205  7199    2
  4928  7205  7243    1
  4929  7206  7200    1
  4930  7206  7238    1
  4931  7819  7738    1
  4932  2419  2430    1
  4933  2419  2414    1
  4934  7199  7209    1
  4935  8711  8722    1
  4936  8711  8706    1
  4937  7200  7216   ar
  4938  5279  5290    1
  4939  5279  5274    1
  4940  7247  7166    1
  4941  8139  8150    1
  4942  8139  8134    1
  4943  4707  4718    1
  4944  4707  4702    1
  4945  7567  7578    1
  4946  7567  7562    1
  4947  6995  7006    1
  4948  6995  6990    1
  4949  1842  1848    1
  4950  1270  1276    1
  4951  4130  4136    1
  4952   698   704    1
  4953  3558  3564    1
  4954   126   132    1
  4955  6418  6424    1
  4956  2092  2007    1
  4957  2986  2992    1
  4958  2066  2016    1
  4959  2093  2004    1
  4960  5846  5852    1
  4961  1520  1435    1
  4962  2090  2007    1
  4963  2095  2004    1
  4964  2414  2420    1
  4965  2063  4354   ar
  4966  2063  2014    1
  4967  8706  8712    1
  4968  4380  4295    1
  4969  1494  1444    1
  4970  1521  1432    1
  4971  5274  5280    1
  4972   948   863    1
  4973  1518  1435    1
  4974  1523  1432    1
  4975  4354  4304    1
  4976  4381  4292    1
  4977  1491  3782   ar
  4978  1491  1442    1
  4979  8134  8140    1
  4980  3808  3723    1
  4981  4378  4295    1
  4982   922   872    1
  4983   949   860    1
  4984  4383  4292    1
  4985  4702  4708    1
  4986   376   291    1
  4987   946   863    1
  4988  4351  6642   ar
  4989  4351  4302    1
  4990  6668  6583    1
  4991   951   860    1
  4992  3782  3732    1
  4993  3809  3720    1
  4994   919  3210   ar
  4995   919   870    1
  4996  7562  7568    1
  4997  3236  3151    1
  4998  3806  3723    1
  4999  2061  1496   ar
  5000  2061  2012    1
  5001   350   300    1
  5002   377   288    1
  5003  3811  3720    1
  5004  6642  6592    1
  5005  6669  6580    1
  5006   374   291    1
  5007  3779  6070   ar
  5008  3779  3730    1
  5009  2068  2069    1
  5010  6096  6011    1
  5011  6666  6583    1
  5012   379   288    1
  5013  3210  3160    1
  5014  3237  3148    1
  5015  6671  6580    1
  5016   347  2638   ar
  5017   347   298    1
  5018  6990  6996    1
  5019  2664  2579    1
  5020  3234  3151    1
  5021  1489   924   ar
  5022  1489  1440    1
  5023  6639  8930   ar
  5024  6639  6590    1
  5025  8956  8871    1
  5026  3239  3148    1
  5027  6070  6020    1
  5028  6097  6008    1
  5029  3207  5498   ar
  5030  3207  3158    1
  5031  1496  1497    1
  5032  5524  5439    1
  5033  6094  6011    1
  5034  4349  3784   ar
  5035  4349  4300    1
  5036  2638  2588    1
  5037  2665  2576    1
  5038  6099  6008    1
  5039  8930  8880    1
  5040  8957  8868    1
  5041  2662  2579    1
  5042   917   352   ar
  5043   917   868    1
  5044  6067  8358   ar
  5045  6067  6018    1
  5046  4356  4357    1
  5047  8384  8299    1
  5048  8954  8871    1
  5049  2667  2576    1
  5050  5498  5448    1
  5051  5525  5436    1
  5052  8959  8868    1
  5053  2635  4926   ar
  5054  2635  2586    1
  5055   924   925    1
  5056  4952  4867    1
  5057  5522  5439    1
  5058  3777  3212   ar
  5059  3777  3728    1
  5060  8927  8878    1
  5061  5527  5436    1
  5062  8358  8308    1
  5063  8385  8296    1
  5064   345   296    1
  5065  5495  7786   ar
  5066  5495  5446    1
  5067  3784  3785    1
  5068  7812  7727    1
  5069  8382  8299    1
  5070  6637  6072   ar
  5071  6637  6588    1
  5072  4926  4876    1
  5073  4953  4864    1
  5074  8387  8296    1
  5075   352   353    1
  5076  4950  4867    1
  5077  3205  2640   ar
  5078  3205  3156    1
  5079  8355  8306    1
  5080  6644  6645    1
  5081  4955  4864    1
  5082  7786  7736    1
  5083  7813  7724    1
  5084  4923  7214   ar
  5085  4923  4874    1
  5086  3212  3213    1
  5087  7240  7155    1
  5088  7810  7727    1
  5089  6065  5500   ar
  5090  6065  6016    1
  5091  7815  7724    1
  5092  2633  2584    1
  5093  7783  7734    1
  5094  6072  6073    1
  5095  8925  8360   ar
  5096  8925  8876    1
  5097  7214  7164    1
  5098  7241  7152    1
  5099  2640  2641    1
  5100  7238  7155    1
  5101  5493  4928   ar
  5102  5493  5444    1
  5103  8932  8933    1
  5104  7243  7152    1
  5105  7211  7162    1
  5106  5500  5501    1
  5107  8353  7788   ar
  5108  8353  8304    1
  5109  4921  4872    1
  5110  8360  8361    1
  5111  4928  4929    1
  5112  7781  7216   ar
  5113  7781  7732    1
  5114  7788  7789    1
  5115  7209  7160    1
  5116  2007  2088    1
  5117  2007  2086    1
  5118  2007  2076    1
  5119  7216  7217    1
  5120  1435  1516    1
  5121  1435  1514    1
  5122  1435  1504    1
  5123  4295  4376    1
  5124  4295  4374    1
  5125  4295  4364    1
  5126   863   944    1
  5127   863   942    1
  5128   863   932    1
  5129  2004  2081    1
  5130  2004  2083    1
  5131  2004  2079    1
  5132  3723  3804    1
  5133  3723  3802    1
  5134  3723  3792    1
  5135   291   372    1
  5136   291   370    1
  5137   291   360    1
  5138  6583  6664    1
  5139  6583  6662    1
  5140  6583  6652    1
  5141  1432  1509    1
  5142  1432  1511    1
  5143  1432  1507    1
  5144  3151  3232    1
  5145  3151  3230    1
  5146  3151  3220    1
  5147  4292  4369    1
  5148  4292  4371    1
  5149  4292  4367    1
  5150  6011  6092    1
  5151  6011  6090    1
  5152  6011  6080    1
  5153   860   937    1
  5154   860   939    1
  5155   860   935    1
  5156  2579  2660    1
  5157  2579  2658    1
  5158  2579  2648    1
  5159  8871  8952    1
  5160  8871  8950    1
  5161  8871  8940    1
  5162  3720  3797    1
  5163  3720  3799    1
  5164  3720  3795    1
  5165  5439  5520    1
  5166  5439  5518    1
  5167  5439  5508    1
  5168   288   365    1
  5169   288   367    1
  5170   288   363    1
  5171  6580  6657    1
  5172  6580  6659    1
  5173  6580  6655    1
  5174  8299  8380    1
  5175  8299  8378    1
  5176  8299  8368    1
  5177  3148  3225    1
  5178  3148  3227    1
  5179  3148  3223    1
  5180  4867  4948    1
  5181  4867  4946    1
  5182  4867  4936    1
  5183  6008  6085    1
  5184  6008  6087    1
  5185  6008  6083    1
  5186  7727  7808    1
  5187  7727  7806    1
  5188  7727  7796    1
  5189  2576  2653    1
  5190  2576  2655    1
  5191  2576  2651    1
  5192  8868  8945    1
  5193  8868  8947    1
  5194  8868  8943    1
  5195  5436  5513    1
  5196  5436  5515    1
  5197  5436  5511    1
  5198  7155  7236    1
  5199  7155  7234    1
  5200  7155  7224    1
  5201  8296  8373    1
  5202  8296  8375    1
  5203  8296  8371    1
  5204  4864  4941    1
  5205  4864  4943    1
  5206  4864  4939    1
  5207  7724  7801    1
  5208  7724  7803    1
  5209  7724  7799    1
  5210  1851  1845    1
  5211  2027  2097    1
  5212  7152  7229    1
  5213  7152  7231    1
  5214  7152  7227    1
  5215  1279  1273    1
  5216  1848  1856    1
  5217  1848  1845    1
  5218  1848  1859    1
  5219  1455  1525    1
  5220  4139  4133    1
  5221  2088  2006    1
  5222  4315  4385    1
  5223   707   701    1
  5224  1276  1284    1
  5225  1276  1273    1
  5226  1276  1287    1
  5227   883   953    1
  5228  3567  3561    1
  5229  4136  4144    1
  5230  4136  4133    1
  5231  4136  4147    1
  5232  1516  1434    1
  5233  3743  3813    1
  5234   135   129    1
  5235  6427  6421    1
  5236   704   712    1
  5237   704   701    1
  5238   704   715    1
  5239   311   381    1
  5240  4376  4294    1
  5241  6603  6673    1
  5242  2995  2989    1
  5243  3564  3572    1
  5244  3564  3561    1
  5245  3564  3575    1
  5246   944   862    1
  5247  3171  3241    1
  5248  5855  5849    1
  5249   132   140    1
  5250   132   129    1
  5251   132   143    1
  5252  2081  2010    1
  5253  6424  6432    1
  5254  6424  6421    1
  5255  6424  6435    1
  5256  3804  3722    1
  5257  1853  1845    1
  5258  6031  6101    1
  5259  2069  2025    1
  5260  2423  2417    1
  5261  8715  8709    1
  5262  2992  3000    1
  5263  2992  2989    1
  5264  2992  3003    1
  5265   372   290    1
  5266  2599  2669    1
  5267  6664  6582    1
  5268  8891  8961    1
  5269  5283  5277    1
  5270  1509  1438    1
  5271  5852  5860    1
  5272  5852  5849    1
  5273  5852  5863    1
  5274  3232  3150    1
  5275  1281  1273    1
  5276  5459  5529    1
  5277  1497  1453    1
  5278  1497  2026    1
  5279  8143  8137    1
  5280  2420  2428    1
  5281  2420  2417    1
  5282  2420  2431    1
  5283  4369  4298    1
  5284  8712  8720    1
  5285  8712  8709    1
  5286  8712  8723    1
  5287  6092  6010    1
  5288  4141  4133    1
  5289  8319  8389    1
  5290  4357  4313    1
  5291  4711  4705    1
  5292   937   866    1
  5293  5280  5288    1
  5294  5280  5277    1
  5295  5280  5291    1
  5296  2660  2578    1
  5297   709   701    1
  5298  4887  4957    1
  5299   925   881    1
  5300   925  1454    1
  5301  8952  8870    1
  5302  7571  7565    1
  5303  3797  3726    1
  5304  8140  8148    1
  5305  8140  8137    1
  5306  8140  8151    1
  5307  5520  5438    1
  5308  3569  3561    1
  5309  7747  7817    1
  5310  3785  3741    1
  5311  3785  4314    1
  5312   365   294    1
  5313  4708  4716    1
  5314  4708  4705    1
  5315  4708  4719    1
  5316  6657  6586    1
  5317   137   129    1
  5318   353   309    1
  5319   353   882    1
  5320  8380  8298    1
  5321  6429  6421    1
  5322  6645  6601    1
  5323  6999  6993    1
  5324  3225  3154    1
  5325  7568  7576    1
  5326  7568  7565    1
  5327  7568  7579    1
  5328  4948  4866    1
  5329  2997  2989    1
  5330  7175  7245    1
  5331  3213  3169    1
  5332  3213  3742    1
  5333  6085  6014    1
  5334  7808  7726    1
  5335  5857  5849    1
  5336  6073  6029    1
  5337  6073  6602    1
  5338  1845  1855    1
  5339  2653  2582    1
  5340  6996  7004    1
  5341  6996  6993    1
  5342  6996  7007    1
  5343  8945  8874    1
  5344  2425  2417    1
  5345  2641  2597    1
  5346  2641  3170    1
  5347  8717  8709    1
  5348  8933  8889    1
  5349  5513  5442    1
  5350  7236  7154    1
  5351  5285  5277    1
  5352  5501  5457    1
  5353  5501  6030    1
  5354  1273  1283    1
  5355  8373  8302    1
  5356  8145  8137    1
  5357  8361  8317    1
  5358  8361  8890    1
  5359  4133  4143    1
  5360  4941  4870    1
  5361  4713  4705    1
  5362  4929  4885    1
  5363  4929  5458    1
  5364   701   711    1
  5365  2086  2006    1
  5366  7801  7730    1
  5367  7573  7565    1
  5368  7789  7745    1
  5369  7789  8318    1
  5370  3561  3571    1
  5371   129   139    1
  5372  6421  6431    1
  5373  1514  1434    1
  5374  7229  7158    1
  5375  2083  2010    1
  5376  7001  6993    1
  5377  7217  7173    1
  5378  7217  7746    1
  5379  2989  2999    1
  5380  4374  4294    1
  5381  5849  5859    1
  5382   942   862    1
  5383  2097  2010    1
  5384  1511  1438    1
  5385  2417  2427    1
  5386  8709  8719    1
  5387  3802  3722    1
  5388  4371  4298    1
  5389  5277  5287    1
  5390   370   290    1
  5391  1525  1438    1
  5392  6662  6582    1
  5393   939   866    1
  5394  8137  8147    1
  5395  3230  3150    1
  5396  4385  4298    1
  5397  3799  3726    1
  5398  4705  4715    1
  5399   953   866    1
  5400  6090  6010    1
  5401   367   294    1
  5402  6659  6586    1
  5403  7565  7575    1
  5404  2658  2578    1
  5405  3813  3726    1
  5406  8950  8870    1
  5407  3227  3154    1
  5408   381   294    1
  5409  5518  5438    1
  5410  6673  6586    1
  5411  6087  6014    1
  5412  6993  7003    1
  5413  3241  3154    1
  5414  8378  8298    1
  5415  2655  2582    1
  5416  8947  8874    1
  5417  4946  4866    1
  5418  6101  6014    1
  5419  5515  5442    1
  5420  2669  2582    1
  5421  7806  7726    1
  5422  8961  8874    1
  5423  8375  8302    1
  5424  5529  5442    1
  5425  4943  4870    1
  5426  7234  7154    1
  5427  8389  8302    1
  5428  7803  7730    1
  5429  4957  4870    1
  5430  2076  2038    1
  5431  7817  7730    1
  5432  7231  7158    1
  5433  1504  1466    1
  5434  7245  7158    1
  5435  4364  4326    1
  5436   932   894    1
  5437  2079  2035    1
  5438  3792  3754    1
  5439   360   322    1
  5440  1507  1463    1
  5441  6652  6614    1
  5442  3220  3182    1
  5443  4367  4323    1
  5444   935   891    1
  5445  6080  6042    1
  5446  2006  2077    1
  5447  2006  2126    1
  5448  2648  2610    1
  5449  3795  3751    1
  5450  8940  8902    1
  5451   363   319    1
  5452  5508  5470    1
  5453  1434  1505    1
  5454  1434  1554    1
  5455  6655  6611    1
  5456  2010  2073    1
  5457  2010  2123    1
  5458  3223  3179    1
  5459  8368  8330    1
  5460  4294  4365    1
  5461  4294  4414    1
  5462  4936  4898    1
  5463   862   933    1
  5464   862   982    1
  5465  6083  6039    1
  5466  1438  1501    1
  5467  1438  1551    1
  5468  2651  2607    1
  5469  7796  7758    1
  5470  3722  3793    1
  5471  3722  3842    1
  5472  8943  8899    1
  5473  4298  4361    1
  5474  4298  4411    1
  5475   290   361    1
  5476   290   410    1
  5477  5511  5467    1
  5478  6582  6653    1
  5479  6582  6702    1
  5480   866   929    1
  5481   866   979    1
  5482  7224  7186    1
  5483  3150  3221    1
  5484  3150  3270    1
  5485  8371  8327    1
  5486  3726  3789    1
  5487  3726  3839    1
  5488  4939  4895    1
  5489  6010  6081    1
  5490  6010  6130    1
  5491   294   357    1
  5492   294   407    1
  5493  6586  6649    1
  5494  6586  6699    1
  5495  2578  2649    1
  5496  2578  2698    1
  5497  7799  7755    1
  5498  8870  8941    1
  5499  8870  8990    1
  5500  3154  3217    1
  5501  3154  3267    1
  5502  5438  5509    1
  5503  5438  5558    1
  5504  6014  6077    1
  5505  6014  6127    1
  5506  7227  7183    1
  5507  8298  8369    1
  5508  8298  8418    1
  5509  2582  2645    1
  5510  2582  2695    1
  5511  8874  8937    1
  5512  8874  8987    1
  5513  4866  4937    1
  5514  4866  4986    1
  5515  5442  5505    1
  5516  5442  5555    1
  5517  7726  7797    1
  5518  7726  7846    1
  5519  8302  8365    1
  5520  8302  8415    1
  5521  4870  4933    1
  5522  4870  4983    1
  5523  7154  7225    1
  5524  7154  7274    1
  5525  2024  2046    1
  5526  7730  7793    1
  5527  7730  7843    1
  5528  1452  1474    1
  5529  7158  7221    1
  5530  7158  7271    1
  5531  2022  2049    1
  5532  4312  4334    1
  5533   880   902    1
  5534  1450  1477    1
  5535  3740  3762    1
  5536   308   330    1
  5537  4310  4337    1
  5538  6600  6622    1
  5539   878   905    1
  5540  3168  3190    1
  5541  3738  3765    1
  5542  6028  6050    1
  5543   306   333    1
  5544  2596  2618    1
  5545  6598  6625    1
  5546  8888  8910    1
  5547  3166  3193    1
  5548  5456  5478    1
  5549  6026  6053    1
  5550  8316  8338    1
  5551  2594  2621    1
  5552  4884  4906    1
  5553  8886  8913    1
  5554  5454  5481    1
  5555  7744  7766    1
  5556  8314  8341    1
  5557  4882  4909    1
  5558  7172  7194    1
  5559  7742  7769    1
  5560  2038  2077    1
  5561  2038  2042    1
  5562  7170  7197    1
  5563  1466  1505    1
  5564  1466  1470    1
  5565  4326  4365    1
  5566  4326  4330    1
  5567   894   933    1
  5568   894   898    1
  5569  2035  2073    1
  5570  2035  2039    1
  5571  3754  3793    1
  5572  3754  3758    1
  5573   322   361    1
  5574   322   326    1
  5575  6614  6653    1
  5576  6614  6618    1
  5577  1463  1501    1
  5578  1463  1467    1
  5579  3182  3221    1
  5580  3182  3186    1
  5581  4323  4361    1
  5582  4323  4327    1
  5583  6042  6081    1
  5584  6042  6046    1
  5585   891   929    1
  5586   891   895    1
  5587  2610  2649    1
  5588  2610  2614    1
  5589  8902  8941    1
  5590  8902  8906    1
  5591  3751  3789    1
  5592  3751  3755    1
  5593  5470  5509    1
  5594  5470  5474    1
  5595   319   357    1
  5596   319   323    1
  5597  6611  6649    1
  5598  6611  6615    1
  5599  8330  8369    1
  5600  8330  8334    1
  5601  3179  3217    1
  5602  3179  3183    1
  5603  4898  4937    1
  5604  4898  4902    1
  5605  6039  6077    1
  5606  6039  6043    1
  5607  7758  7797    1
  5608  7758  7762    1
  5609  2607  2645    1
  5610  2607  2611    1
  5611  8899  8937    1
  5612  8899  8903    2
  5613  5467  5505    1
  5614  5467  5471    1
  5615  7186  7225    1
  5616  7186  7190    1
  5617  8327  8365    1
  5618  8327  8331    2
  5619  4895  4933    1
  5620  4895  4899    1
  5621  7755  7793    1
  5622  7755  7759    2
  5623  2109  2113    1
  5624  2126  2055    1
  5625  2046  2042    1
  5626  7183  7221    1
  5627  7183  7187    2
  5628  1537  1541    1
  5629  1554  1483    1
  5630  4397  4401    1
  5631  1474  1470   ar
  5632  1474  2048   ar
  5633  4414  4343    1
  5634   965   969    1
  5635  4334  4330    1
  5636   982   911    1
  5637  2049  2039   ar
  5638  2049  4332   ar
  5639  3825  3829    1
  5640   902   898   ar
  5641   902  1476   ar
  5642  3842  3771    1
  5643   393   397    1
  5644  6685  6689    1
  5645  3762  3758   ar
  5646  3762  4336   ar
  5647  2123  2055    1
  5648   410   339    1
  5649  1477  1467   ar
  5650  1477  3760   ar
  5651  6702  6631    1
  5652  3253  3257    1
  5653   330   326   ar
  5654   330   904   ar
  5655  6622  6618    1
  5656  3270  3199    1
  5657  4337  4327   ar
  5658  4337  6620   ar
  5659  6113  6117    1
  5660  3190  3186   ar
  5661  3190  3764   ar
  5662  1551  1483    1
  5663   905   895   ar
  5664   905  3188   ar
  5665  6130  6059    1
  5666  2681  2685    1
  5667  8973  8977    1
  5668  6050  6046   ar
  5669  6050  6624   ar
  5670  4411  4343    1
  5671  2698  2627    1
  5672  3765  3755   ar
  5673  3765  6048   ar
  5674  8990  8919    1
  5675  5541  5545    1
  5676  2618  2614   ar
  5677  2618  3192   ar
  5678   979   911    1
  5679   333   323   ar
  5680   333  2616   ar
  5681  8910  8906    1
  5682  5558  5487    1
  5683  6625  6615   ar
  5684  6625  8908   ar
  5685  8401  8405    1
  5686  5478  5474   ar
  5687  5478  6052   ar
  5688  3839  3771    1
  5689  3193  3183   ar
  5690  3193  5476   ar
  5691  8418  8347    1
  5692  4969  4973    1
  5693   407   339    1
  5694  8338  8334   ar
  5695  8338  8912   ar
  5696  6699  6631    1
  5697  4986  4915    1
  5698  6053  6043   ar
  5699  6053  8336   ar
  5700  7829  7833    1
  5701  4906  4902   ar
  5702  4906  5480   ar
  5703  3267  3199    1
  5704  2103  2117    1
  5705  2621  2611   ar
  5706  2621  4904   ar
  5707  7846  7775    1
  5708  8913  8903    1
  5709  7766  7762   ar
  5710  7766  8340   ar
  5711  6127  6059    1
  5712  5481  5471   ar
  5713  5481  7764   ar
  5714  7257  7261    1
  5715  2695  2627    1
  5716  1531  1545    1
  5717  8987  8919    1
  5718  7274  7203    1
  5719  8341  8331    1
  5720  2113  2117    1
  5721  2113  2119    2
  5722  7194  7190   ar
  5723  7194  7768   ar
  5724  5555  5487    1
  5725  4391  4405    1
  5726  2042  2047    2
  5727  4909  4899   ar
  5728  4909  7192   ar
  5729  2055  2111    1
  5730   959   973    1
  5731  8415  8347    1
  5732  7769  7759    1
  5733  1541  1545   ar
  5734  1541  1547   ar
  5735  2023  2044    1
  5736  4983  4915    1
  5737  3819  3833    1
  5738  1470  1475   ar
  5739  1483  1539    1
  5740  4401  4405    1
  5741  4401  4407    2
  5742   387   401    1
  5743  7843  7775    1
  5744  6679  6693    1
  5745  4330  4335    2
  5746  7197  7187    1
  5747  4343  4399    1
  5748   969   973   ar
  5749   969   975   ar
  5750  1451  1472    1
  5751  3247  3261    1
  5752   898   903   ar
  5753   911   967    1
  5754  2039  2043   ar
  5755  3829  3833   ar
  5756  3829  3835   ar
  5757  4311  4332    1
  5758  7271  7203    1
  5759  4398  2119    1
  5760  6107  6121    1
  5761  3758  3763   ar
  5762  3771  3827    1
  5763   397   401   ar
  5764   397   403   ar
  5765  6689  6693    1
  5766  6689  6695    2
  5767   879   900    1
  5768  2675  2689    1
  5769   326   331   ar
  5770   339   395    1
  5771  8967  8981    1
  5772  6618  6623    2
  5773  1467  1471   ar
  5774  6631  6687    1
  5775  3257  3261   ar
  5776  3257  3263   ar
  5777  3739  3760    1
  5778  3826  1547    1
  5779  5535  5549    1
  5780  3186  3191   ar
  5781  3199  3255    1
  5782  4327  4331   ar
  5783  6117  6121   ar
  5784  6117  6123   ar
  5785   307   328    1
  5786  6599  6620    1
  5787  6686  4407    1
  5788  8395  8409    1
  5789  6046  6051   ar
  5790   895   899   ar
  5791  6059  6115    1
  5792  2685  2689   ar
  5793  2685  2691   ar
  5794  8977  8981    2
  5795  8977  8983    1
  5796  3167  3188    1
  5797  3254   975    1
  5798  2019  2048    1
  5799  4963  4977    1
  5800  2614  2619   ar
  5801  1545  4408   ar
  5802  2627  2683    1
  5803  8906  8911    2
  5804  3755  3759   ar
  5805  8919  8975    1
  5806  5545  5549   ar
  5807  5545  5551   ar
  5808  6027  6048    1
  5809  6114  3835    1
  5810  7823  7837    1
  5811  5474  5479   ar
  5812   323   327   ar
  5813  5487  5543    1
  5814  6615  6619   ar
  5815  8405  8409    2
  5816  8405  8411    1
  5817  2595  2616    1
  5818  2682   403    1
  5819  1447  1476    1
  5820   973  3836   ar
  5821  8887  8908    1
  5822  8974  6695    1
  5823  8334  8339   ar
  5824  3183  3187   ar
  5825  8347  8403    1
  5826  4973  4977   ar
  5827  4973  4979   ar
  5828  5455  5476    1
  5829  5542  3263    1
  5830  4307  4336    1
  5831  7251  7265    1
  5832  4902  4907   ar
  5833  3833  6696   ar
  5834  4915  4971    1
  5835  6043  6047   ar
  5836  7833  7837    2
  5837  7833  7839    1
  5838   875   904    1
  5839   401  3264   ar
  5840  8315  8336    1
  5841  8402  6123    1
  5842  7762  7767   ar
  5843  2611  2615   ar
  5844  7775  7831    1
  5845  1547  4406   ar
  5846  8903  8907    1
  5847  4883  4904    1
  5848  4970  2691    1
  5849  3735  3764    1
  5850  3261  6124   ar
  5851  5471  5475   ar
  5852  2044  2040    1
  5853  7261  7265    2
  5854  7261  7267    1
  5855   303   332    1
  5856  7743  7764    1
  5857  7830  5551    1
  5858  6595  6624    1
  5859  7190  7195   ar
  5860  6121  8984   ar
  5861  7203  7259    1
  5862   975  3834   ar
  5863  8331  8335    1
  5864  3163  3192    1
  5865  2689  5552   ar
  5866  4899  4903   ar
  5867  1472  1468    1
  5868  3835  6694   ar
  5869  7171  7192    1
  5870  7258  4979    1
  5871  6023  6052    1
  5872  5549  8412   ar
  5873   403  3262   ar
  5874  7759  7763    1
  5875  4332  4328   ar
  5876  2591  2620    1
  5877  8883  8912    1
  5878   900   896    1
  5879  3263  6122   ar
  5880  5451  5480    1
  5881  4977  7840   ar
  5882  2048  2041   ar
  5883  7187  7191    1
  5884  3760  3756   ar
  5885  6123  8982   ar
  5886  8311  8340    1
  5887   328   324    1
  5888  2691  5550   ar
  5889  6620  6616   ar
  5890  4879  4908    1
  5891  1476  1469   ar
  5892  3188  3184   ar
  5893  5551  8410   ar
  5894  7739  7768    1
  5895  4336  4329   ar
  5896  6048  6044   ar
  5897   904   897   ar
  5898  2616  2612   ar
  5899  2108  2115    1
  5900  4979  7838   ar
  5901  8908  8904   ar
  5902  7167  7196    1
  5903  3764  3757   ar
  5904  5476  5472   ar
  5905   332   325    1
  5906  6624  6617   ar
  5907  1536  1543    1
  5908  8336  8332   ar
  5909  3192  3185   ar
  5910  4904  4900   ar
  5911  4396  4403    1
  5912  2120  2106    1
  5913  2120  2114    1
  5914  6052  6045   ar
  5915   964   971    1
  5916  7764  7760   ar
  5917  2620  2613    1
  5918  8912  8905   ar
  5919  3824  3831    1
  5920  1548  1534    1
  5921  1548  1542    1
  5922  5480  5473   ar
  5923   392   399    1
  5924  7192  7188   ar
  5925  6684  6691    1
  5926  4408  4394    1
  5927  4408  4402   ar
  5928  8340  8333   ar
  5929  3252  3259    1
  5930   976   962    1
  5931   976   970    1
  5932  2111  2115   ar
  5933  2111  2121   ar
  5934  4908  4901    1
  5935  2118  2114    1
  5936  2118  2102    1
  5937  6112  6119    1
  5938  3836  3822    1
  5939  3836  3830   ar
  5940  7768  7761   ar
  5941  2680  2687    1
  5942   404   390    1
  5943   404   398    1
  5944  8972  8979    1
  5945  1539  1543   ar
  5946  1539  1549   ar
  5947  6696  6682    1
  5948  6696  6690   ar
  5949  1546  1542    1
  5950  1546  1530    1
  5951  5540  5547    1
  5952  3264  3250    1
  5953  3264  3258   ar
  5954  4399  4403   ar
  5955  4399  4409   ar
  5956  7196  7189    1
  5957  4406  4402   ar
  5958  4406  4390    1
  5959  8400  8407    1
  5960   967   971   ar
  5961   967   977   ar
  5962  6124  6110    1
  5963  6124  6118   ar
  5964   974   970    1
  5965   974   958    1
  5966  4968  4975    1
  5967  2692  2678    1
  5968  2692  2686    1
  5969  3827  3831   ar
  5970  3827  3837   ar
  5971  8984  8970    1
  5972  8984  8978   ar
  5973  3834  3830   ar
  5974  3834  3818    1
  5975  7828  7835    1
  5976   395   399   ar
  5977   395   405   ar
  5978  5552  5538    1
  5979  5552  5546   ar
  5980  6687  6691   ar
  5981  6687  6697   ar
  5982   402   398    1
  5983   402   386    1
  5984  6694  6690   ar
  5985  6694  6678    1
  5986  3255  3259   ar
  5987  3255  3265   ar
  5988  8412  8398    1
  5989  8412  8406   ar
  5990  3262  3258   ar
  5991  3262  3246    1
  5992  7256  7263    1
  5993  2115  2122   ar
  5994  4980  4966    1
  5995  4980  4974    1
  5996  6115  6119   ar
  5997  6115  6125   ar
  5998  6122  6118   ar
  5999  6122  6106    1
  6000  2683  2687   ar
  6001  2683  2693   ar
  6002  7840  7826    1
  6003  7840  7834   ar
  6004  2114  2056    2
  6005  8975  8979   ar
  6006  8975  8985   ar
  6007  2690  2686    1
  6008  2690  2674    1
  6009  1543  1550   ar
  6010  8982  8978   ar
  6011  8982  8966    1
  6012  5543  5547   ar
  6013  5543  5553   ar
  6014  5550  5546   ar
  6015  5550  5534    1
  6016  4403  4410   ar
  6017  7268  7254    1
  6018  7268  7262    1
  6019  1542  1484    2
  6020  8403  8407   ar
  6021  8403  8413   ar
  6022   971   978   ar
  6023  8410  8406   ar
  6024  8410  8394    1
  6025  4971  4975   ar
  6026  4971  4981   ar
  6027  4402  4344    1
  6028  2104  2121    1
  6029  4978  4974    1
  6030  4978  4962    1
  6031  3831  3838   ar
  6032   970   912    2
  6033  7831  7835   ar
  6034  7831  7841   ar
  6035   399   406   ar
  6036  7838  7834   ar
  6037  7838  7822    1
  6038  6691  6698   ar
  6039  3830  3772    1
  6040  1532  1549    1
  6041  3259  3266   ar
  6042   398   340    2
  6043  7259  7263   ar
  6044  7259  7269   ar
  6045  6690  6632    1
  6046  4392  4409    1
  6047  7266  7262    1
  6048  7266  7250    1
  6049  2047  2020    1
  6050  6119  6126   ar
  6051  3258  3200    1
  6052   960   977    1
  6053  2687  2694   ar
  6054  8979  8986   ar
  6055  6118  6060    1
  6056  3820  3837    1
  6057  1475  1448    1
  6058  1475  2045   ar
  6059  5547  5554   ar
  6060  2686  2628    2
  6061   388   405    1
  6062  8978  8920    1
  6063  6680  6697    1
  6064  2032  2071    1
  6065  4335  4308    1
  6066  8407  8414   ar
  6067  2121  2116   ar
  6068  5546  5488    1
  6069  3248  3265    1
  6070   903   876    1
  6071   903  1473   ar
  6072  4975  4982   ar
  6073  8406  8348    1
  6074  6108  6125    1
  6075  1460  1499    1
  6076  3763  3736    1
  6077  3763  4333   ar
  6078  7835  7842   ar
  6079  1549  1544   ar
  6080  4974  4916    2
  6081  2676  2693    1
  6082   331   304    1
  6083   331   901   ar
  6084  8968  8985    1
  6085  4320  4359    1
  6086  6623  6596    1
  6087  2043  2071    1
  6088  2043  4338   ar
  6089  4409  4404   ar
  6090  7834  7776    1
  6091  5536  5553    1
  6092   888   927    1
  6093  3191  3164    1
  6094  3191  3761   ar
  6095  7263  7270   ar
  6096   977   972   ar
  6097  8396  8413    1
  6098  3748  3787    1
  6099  6051  6024    1
  6100  6051  6621   ar
  6101  1471  1499    1
  6102  1471  3766   ar
  6103  3837  3832   ar
  6104  7262  7204    2
  6105  4964  4981    1
  6106   316   355    1
  6107  2619  2592    1
  6108  2619  3189   ar
  6109  6608  6647    1
  6110   405   400   ar
  6111  8911  8884    1
  6112  4331  4359    1
  6113  4331  6626   ar
  6114  6697  6692   ar
  6115  7824  7841    1
  6116  3176  3215    1
  6117  5479  5452    1
  6118  5479  6049   ar
  6119   899   927    1
  6120   899  3194   ar
  6121  3265  3260   ar
  6122  6036  6075    1
  6123  8339  8312    1
  6124  8339  8909   ar
  6125  3759  3787    1
  6126  3759  6054   ar
  6127  6125  6120   ar
  6128  7252  7269    1
  6129  2604  2643    1
  6130  4907  4880    1
  6131  4907  5477   ar
  6132   327   355    1
  6133   327  2622   ar
  6134  8896  8935    1
  6135  2693  2688   ar
  6136  6619  6647    1
  6137  6619  8914   ar
  6138  8985  8980   ar
  6139  5464  5503    1
  6140  7767  7740    1
  6141  7767  8337   ar
  6142  3187  3215    1
  6143  3187  5482   ar
  6144  5553  5548   ar
  6145  8324  8363    1
  6146  6047  6075    1
  6147  6047  8342   ar
  6148  8413  8408   ar
  6149  4892  4931    1
  6150  7195  7168    1
  6151  7195  7765   ar
  6152  2615  2643    1
  6153  2615  4910   ar
  6154  4981  4976   ar
  6155  8907  8935    1
  6156  2040  2050    2
  6157  2040  2036    1
  6158  7752  7791    1
  6159  5475  5503    1
  6160  5475  7770   ar
  6161  7841  7836   ar
  6162  8335  8363    1
  6163  1468  1478    2
  6164  1468  1464    1
  6165  7180  7219    1
  6166  4903  4931    1
  6167  4903  7198   ar
  6168  2122  2105    1
  6169  2122  2112   ar
  6170  7269  7264   ar
  6171  4328  4338   ar
  6172  4328  4324    1
  6173  7763  7791    1
  6174   896   906    2
  6175   896   892    1
  6176  2056  2124    1
  6177  2056  2125    1
  6178  2041  2045   ar
  6179  2041  2037    1
  6180  1550  1533    1
  6181  1550  1540   ar
  6182  3756  3766   ar
  6183  3756  3752    1
  6184  7191  7219    1
  6185  4410  4393    1
  6186  4410  4400   ar
  6187   324   334    2
  6188   324   320    1
  6189  1484  1552    1
  6190  1484  1553    1
  6191  6616  6626   ar
  6192  6616  6612    1
  6193  1469  1473   ar
  6194  1469  1465    1
  6195   978   961    1
  6196   978   968   ar
  6197  3184  3194   ar
  6198  3184  3180    1
  6199  4344  4412    1
  6200  4344  4413    1
  6201  4329  4333   ar
  6202  4329  4325    1
  6203  3838  3821    1
  6204  3838  3828   ar
  6205   912   980    1
  6206   912   981    1
  6207  6044  6054   ar
  6208  6044  6040    1
  6209   897   901   ar
  6210   897   893    1
  6211   406   389    1
  6212   406   396   ar
  6213  2071  2031    1
  6214  6698  6681    1
  6215  6698  6688   ar
  6216  2612  2622   ar
  6217  2612  2608    1
  6218  3772  3840    1
  6219  3772  3841    1
  6220  8904  8914   ar
  6221  8904  8900    1
  6222  3757  3761   ar
  6223  3757  3753    1
  6224  3266  3249    1
  6225  3266  3256   ar
  6226   340   408    1
  6227   340   409    1
  6228  5472  5482   ar
  6229  5472  5468    1
  6230  6632  6700    1
  6231  6632  6701    1
  6232   325   329    2
  6233   325   321    1
  6234  6617  6621   ar
  6235  6617  6613    1
  6236  1499  1459    1
  6237  6126  6109    1
  6238  6126  6116   ar
  6239  3200  3268    1
  6240  3200  3269    1
  6241  8332  8342   ar
  6242  8332  8328    1
  6243  3185  3189   ar
  6244  3185  3181    1
  6245  2694  2677    1
  6246  2694  2684   ar
  6247  4359  4319    1
  6248  8986  8969    1
  6249  8986  8976   ar
  6250  4900  4910   ar
  6251  4900  4896    1
  6252  6060  6128    1
  6253  6060  6129    1
  6254  6045  6049   ar
  6255  6045  6041    1
  6256   927   887    1
  6257  5554  5537    1
  6258  5554  5544   ar
  6259  2628  2696    1
  6260  2628  2697    1
  6261  7760  7770   ar
  6262  7760  7756    1
  6263  8920  8988    1
  6264  8920  8989    1
  6265  2613  2617    2
  6266  2613  2609    1
  6267  8905  8909   ar
  6268  8905  8901    1
  6269  3787  3747    1
  6270  8414  8397    1
  6271  8414  8404   ar
  6272  5488  5556    1
  6273  5488  5557    1
  6274  2116  2112   ar
  6275  2116  2101    1
  6276  5473  5477   ar
  6277  5473  5469    1
  6278   355   315    1
  6279  2124  2009    1
  6280  4982  4965    1
  6281  4982  4972   ar
  6282  6647  6607    1
  6283  7188  7198   ar
  6284  7188  7184    1
  6285  8348  8416    1
  6286  8348  8417    1
  6287  8333  8337   ar
  6288  8333  8329    1
  6289  3215  3175    1
  6290  7842  7825    1
  6291  7842  7832   ar
  6292  4916  4984    1
  6293  4916  4985    1
  6294  1544  1540   ar
  6295  1544  1529    1
  6296  4901  4905    2
  6297  4901  4897    1
  6298  1552  1437    1
  6299  6075  6035    1
  6300  7776  7844    1
  6301  7776  7845    1
  6302  2050  2021    1
  6303  2125  2005    1
  6304  4404  4400   ar
  6305  4404  4389    1
  6306  7761  7765   ar
  6307  7761  7757    1
  6308  2643  2603    1
  6309  4412  4297    1
  6310  7270  7253    1
  6311  7270  7260   ar
  6312  8935  8895    1
  6313   972   968   ar
  6314   972   957    1
  6315   980   865    1
  6316  5503  5463    1
  6317  7204  7272    1
  6318  7204  7273    1
  6319  1478  1449    1
  6320  1553  1433    1
  6321  3832  3828   ar
  6322  3832  3817    1
  6323  7189  7193    2
  6324  7189  7185    1
  6325  3840  3725    1
  6326  2074  2036    1
  6327  2074  2009    1
  6328  8363  8323    1
  6329  2045  2072    1
  6330   400   396   ar
  6331   400   385    1
  6332  4338  4309    1
  6333  4413  4293    1
  6334  6692  6688   ar
  6335  6692  6677    1
  6336   408   293    1
  6337  4931  4891    1
  6338  6700  6585    1
  6339   906   877    1
  6340   981   861    1
  6341  3260  3256   ar
  6342  3260  3245    1
  6343  2112  2107    1
  6344  3268  3153    1
  6345  1502  1464    1
  6346  1502  1437    1
  6347  7791  7751    1
  6348  1473  1500    1
  6349  3766  3737    1
  6350  3841  3721    1
  6351  6120  6116   ar
  6352  6120  6105    1
  6353  6128  6013    1
  6354   334   305    1
  6355  4362  4324    1
  6356  4362  4297    1
  6357   409   289    1
  6358  2078  2037    1
  6359  2078  2005    1
  6360  4333  4360    1
  6361  2688  2684   ar
  6362  2688  2673    1
  6363  6626  6597    1
  6364  1540  1535    1
  6365  6701  6581    1
  6366  8980  8976   ar
  6367  8980  8965    1
  6368  2696  2581    1
  6369   930   892    1
  6370   930   865    1
  6371  7219  7179    1
  6372  8988  8873    1
  6373   901   928    1
  6374  3194  3165    1
  6375  3269  3149    1
  6376  5548  5544   ar
  6377  5548  5533    1
  6378  4400  4395    1
  6379  5556  5441    1
  6380  3790  3752    1
  6381  3790  3725    1
  6382  1506  1465    1
  6383  1506  1433    1
  6384  3761  3788    1
  6385  6054  6025    1
  6386   968   963    1
  6387  6129  6009    1
  6388  8408  8404   ar
  6389  8408  8393    1
  6390   358   320    1
  6391   358   293    1
  6392  8416  8301    1
  6393   329   356    1
  6394  2622  2593    1
  6395  6650  6612    1
  6396  6650  6585    1
  6397  2697  2577    1
  6398  4366  4325    1
  6399  4366  4293    1
  6400  6621  6648    1
  6401  4976  4972   ar
  6402  4976  4961    1
  6403  8914  8885    1
  6404  3828  3823    1
  6405  8989  8869    1
  6406  4984  4869    1
  6407  3218  3180    1
  6408  3218  3153    1
  6409   934   893    1
  6410   934   861    1
  6411  3189  3216    1
  6412  5482  5453    1
  6413   396   391    1
  6414  5557  5437    1
  6415  7836  7832   ar
  6416  7836  7821    1
  6417  6688  6683    1
  6418  7844  7729    1
  6419  6078  6040    1
  6420  6078  6013    1
  6421  3794  3753    1
  6422  3794  3721    1
  6423  6049  6076    1
  6424  8342  8313    1
  6425  3256  3251    1
  6426  8417  8297    1
  6427  2646  2608    1
  6428  2646  2581    1
  6429   362   321    1
  6430   362   289    1
  6431  2617  2644    1
  6432  4910  4881    1
  6433  8938  8900    1
  6434  8938  8873    1
  6435  4985  4865    1
  6436  6654  6613    1
  6437  6654  6581    1
  6438  8909  8936    1
  6439  7264  7260   ar
  6440  7264  7249    1
  6441  6116  6111    1
  6442  7272  7157    1
  6443  5506  5468    1
  6444  5506  5441    1
  6445  3222  3181    1
  6446  3222  3149    1
  6447  5477  5504    1
  6448  7770  7741    1
  6449  2684  2679    1
  6450  7845  7725    1
  6451  8976  8971    1
  6452  8366  8328    1
  6453  8366  8301    1
  6454  6082  6041    1
  6455  6082  6009    1
  6456  8337  8364    1
  6457  5544  5539    1
  6458  4934  4896    1
  6459  4934  4869    1
  6460  2650  2609    1
  6461  2650  2577    1
  6462  4905  4932    1
  6463  7198  7169    1
  6464  7273  7153    1
  6465  8942  8901    1
  6466  8942  8869    1
  6467  8404  8399    1
  6468  7794  7756    1
  6469  7794  7729    1
  6470  5510  5469    1
  6471  5510  5437    1
  6472  7765  7792    1
  6473  4972  4967    1
  6474  2036  2080    1
  6475  8370  8329    1
  6476  8370  8297    1
  6477  7832  7827    1
  6478  7222  7184    1
  6479  7222  7157    1
  6480  4938  4897    1
  6481  4938  4865    1
  6482  7193  7220    1
  6483  1464  1508    1
  6484  7798  7757    1
  6485  7798  7725    1
  6486  7260  7255    1
  6487  4324  4368    1
  6488  2037  2075    1
  6489   892   936    1
  6490  7226  7185    1
  6491  7226  7153    1
  6492  3752  3796    1
  6493  1465  1503    1
  6494   320   364    1
  6495  6612  6656    1
  6496  4325  4363    1
  6497  3180  3224    1
  6498   893   931    1
  6499  6040  6084    1
  6500  3753  3791    1
  6501  2608  2652    1
  6502  8900  8944    1
  6503   321   359    1
  6504  6613  6651    1
  6505  5468  5512    1
  6506  3181  3219    1
  6507  8328  8372    1
  6508  6041  6079    1
  6509  4896  4940    1
  6510  2609  2647    1
  6511  8901  8939    1
  6512  7756  7800    1
  6513  5469  5507    1
  6514  8329  8367    1
  6515  7184  7228    1
  6516  4897  4935    1
  6517  7757  7795    1
  6518  7185  7223    1
  6519  2072  2033    1
  6520  2072  2034    1
  6521  2009  2098    1
  6522  2009  2082    1
  6523  2009  2084    1
  6524  1500  1461    1
  6525  1500  1462    1
  6526  1437  1526    1
  6527  1437  1510    1
  6528  1437  1512    1
  6529  4360  4321    1
  6530  4360  4322    1
  6531  2005  2087    1
  6532  2005  2085    1
  6533   928   889    1
  6534   928   890    1
  6535  4297  4386    1
  6536  4297  4370    1
  6537  4297  4372    1
  6538   865   954    1
  6539   865   938    1
  6540   865   940    1
  6541  3788  3749    1
  6542  3788  3750    1
  6543  1433  1515    1
  6544  1433  1513    1
  6545   356   317    1
  6546   356   318    1
  6547  3725  3814    1
  6548  3725  3798    1
  6549  3725  3800    1
  6550  6648  6609    1
  6551  6648  6610    1
  6552  4293  4375    1
  6553  4293  4373    1
  6554   293   382    1
  6555   293   366    1
  6556   293   368    1
  6557  3216  3177    1
  6558  3216  3178    1
  6559  6585  6674    1
  6560  6585  6658    1
  6561  6585  6660    1
  6562   861   943    1
  6563   861   941    1
  6564  3153  3242    1
  6565  3153  3226    1
  6566  3153  3228    1
  6567  6076  6037    1
  6568  6076  6038    1
  6569  3721  3803    1
  6570  3721  3801    1
  6571  2644  2605    1
  6572  2644  2606    1
  6573  6013  6102    1
  6574  6013  6086    1
  6575  6013  6088    1
  6576  8936  8897    1
  6577  8936  8898    1
  6578   289   371    1
  6579   289   369    1
  6580  2080  2003    1
  6581  6581  6663    1
  6582  6581  6661    1
  6583  2581  2670    1
  6584  2581  2654    1
  6585  2581  2656    1
  6586  5504  5465    1
  6587  5504  5466    1
  6588  8873  8962    1
  6589  8873  8946    1
  6590  8873  8948    1
  6591  3149  3231    1
  6592  3149  3229    1
  6593  5441  5530    1
  6594  5441  5514    1
  6595  5441  5516    1
  6596  8364  8325    1
  6597  8364  8326    1
  6598  1508  1431    1
  6599  6009  6091    1
  6600  6009  6089    1
  6601  4932  4893    1
  6602  4932  4894    1
  6603  8301  8390    1
  6604  8301  8374    1
  6605  8301  8376    1
  6606  2577  2659    1
  6607  2577  2657    1
  6608  4368  4291    1
  6609  8869  8951    1
  6610  8869  8949    1
  6611  4869  4958    1
  6612  4869  4942    1
  6613  4869  4944    1
  6614  7792  7753    1
  6615  7792  7754    1
  6616   936   859    1
  6617  5437  5519    1
  6618  5437  5517    1
  6619  2075  2008    1
  6620  7729  7818    1
  6621  7729  7802    1
  6622  7729  7804    1
  6623  3796  3719    1
  6624  8297  8379    1
  6625  8297  8377    1
  6626  7220  7181    1
  6627  7220  7182    1
  6628   364   287    1
  6629  2029  2070    1
  6630  4865  4947    1
  6631  4865  4945    1
  6632  6656  6579    1
  6633  1503  1436    1
  6634  7157  7246    1
  6635  7157  7230    1
  6636  7157  7232    1
  6637  3224  3147    1
  6638  7725  7807    1
  6639  7725  7805    1
  6640  4363  4296    1
  6641  1457  1498    1
  6642  6084  6007    1
  6643   931   864    1
  6644  2652  2575    1
  6645  4317  4358    1
  6646  7153  7235    1
  6647  7153  7233    1
  6648  8944  8867    1
  6649  3791  3724    1
  6650   885   926    1
  6651  5512  5435    1
  6652   359   292    1
  6653  6651  6584    1
  6654  3745  3786    1
  6655  8372  8295    1
  6656  3219  3152    1
  6657   313   354    1
  6658  4940  4863    1
  6659  6605  6646    1
  6660  6079  6012    1
  6661  3173  3214    1
  6662  7800  7723    1
  6663  2647  2580    1
  6664  8939  8872    1
  6665  6033  6074    1
  6666  5507  5440    1
  6667  2098  2028    1
  6668  2601  2642    1
  6669  7228  7151    1
  6670  8893  8934    1
  6671  8367  8300    1
  6672  5461  5502    1
  6673  4935  4868    1
  6674  1526  1456    1
  6675  8321  8362    1
  6676  2082  2003    1
  6677  7795  7728    1
  6678  4386  4316    1
  6679  4889  4930    1
  6680   954   884    1
  6681  7749  7790    1
  6682  1510  1431    1
  6683  7223  7156    1
  6684  3814  3744    1
  6685   382   312    1
  6686  4370  4291    1
  6687  6674  6604    1
  6688  7177  7218    1
  6689   938   859    1
  6690  3242  3172    1
  6691  2087  2008    1
  6692  3798  3719    1
  6693  6102  6032    1
  6694   366   287    1
  6695  2670  2600    1
  6696  6658  6579    1
  6697  1515  1436    1
  6698  8962  8892    1
  6699  1995  1989    1
  6700  3226  3147    1
  6701  5530  5460    1
  6702  4375  4296    1
  6703  6086  6007    1
  6704   943   864    1
  6705  8390  8320    1
  6706  1423  1417    1
  6707  2654  2575    1
  6708  4958  4888    1
  6709  1997  1989    1
  6710  8946  8867    1
  6711  3803  3724    1
  6712  4283  4277    1
  6713  5514  5435    1
  6714   371   292    1
  6715  7818  7748    1
  6716  6663  6584    1
  6717   851   845    1
  6718  1425  1417    1
  6719  8374  8295    1
  6720  3231  3152    1
  6721  3711  3705    1
  6722  4942  4863    1
  6723  7246  7176    1
  6724  4285  4277    1
  6725  6091  6012    1
  6726   279   273    1
  6727   853   845    1
  6728  6571  6565    1
  6729  7802  7723    1
  6730  2659  2580    1
  6731  8951  8872    1
  6732  3139  3133    1
  6733  3713  3705    1
  6734  5519  5440    1
  6735  2030  2070    1
  6736   281   273    1
  6737  5999  5993    1
  6738  7230  7151    1
  6739  6573  6565    1
  6740  8379  8300    1
  6741  2070  2065    1
  6742  2567  2561    1
  6743  3141  3133    1
  6744  8859  8853    1
  6745  4947  4868    1
  6746  1458  1498    1
  6747  2084  2003    1
  6748  5427  5421    1
  6749  6001  5993    1
  6750  7807  7728    1
  6751  4318  4358    1
  6752  1498  1493    1
  6753  2569  2561    1
  6754  8287  8281    1
  6755   886   926    1
  6756  8861  8853    1
  6757  4358  4353    1
  6758  1512  1431    1
  6759  4855  4849    1
  6760  5429  5421    1
  6761  7235  7156    1
  6762  3746  3786    1
  6763   926   921    1
  6764  4372  4291    1
  6765  7715  7709    1
  6766   314   354    1
  6767  2085  2008    1
  6768  8289  8281    1
  6769  6606  6646    1
  6770  3786  3781    1
  6771   940   859    1
  6772  4857  4849    1
  6773  3174  3214    1
  6774   354   349    1
  6775  6646  6641    1
  6776  3800  3719    1
  6777  7143  7137    1
  6778  1513  1436    1
  6779  7717  7709    1
  6780  6034  6074    1
  6781  3214  3209    1
  6782   368   287    1
  6783  6660  6579    1
  6784  2602  2642    1
  6785  4373  4296    1
  6786  8894  8934    1
  6787  6074  6069    1
  6788  3228  3147    1
  6789   941   864    1
  6790  7145  7137    1
  6791  5462  5502    1
  6792  2642  2637    1
  6793  8934  8929    1
  6794  6088  6007    1
  6795  3801  3724    1
  6796  8322  8362    1
  6797  1992  1986    1
  6798  5502  5497    1
  6799  2656  2575    1
  6800   369   292    1
  6801  8948  8867    1
  6802  2013  2064    1
  6803  4890  4930    1
  6804  6661  6584    1
  6805  8362  8357    1
  6806  5516  5435    1
  6807  3229  3152    1
  6808  7750  7790    1
  6809  1420  1414    1
  6810  4930  4925    1
  6811  8376  8295    1
  6812  1441  1492    1
  6813  6089  6012    1
  6814  4280  4274    1
  6815  7790  7785    1
  6816  4944  4863    1
  6817  1989  2000    1
  6818  1989  1984    1
  6819  2657  2580    1
  6820  4301  4352    1
  6821  7178  7218    1
  6822  8949  8872    1
  6823   848   842    1
  6824  7804  7723    1
  6825   869   920    1
  6826  5517  5440    1
  6827  3708  3702    1
  6828  7218  7213    1
  6829  2015  2067    1
  6830  1417  1428    1
  6831  1417  1412    1
  6832  3729  3780    1
  6833  8377  8300    1
  6834   276   270    1
  6835  6568  6562    1
  6836  2011  2062    1
  6837  7232  7151    1
  6838   297   348    1
  6839  4277  4288    1
  6840  4277  4272    1
  6841  4945  4868    1
  6842  6589  6640    1
  6843  3136  3130    1
  6844  1443  1495    1
  6845   845   856    1
  6846   845   840    1
  6847  3157  3208    1
  6848  7805  7728    1
  6849  5996  5990    1
  6850  4303  4355    1
  6851  1439  1490    1
  6852  3705  3716    1
  6853  3705  3700    1
  6854  6017  6068    1
  6855  2564  2558    1
  6856   871   923    1
  6857  8856  8850    1
  6858   273   284    1
  6859   273   268    1
  6860  4299  4350    1
  6861  2585  2636    1
  6862  6565  6576    1
  6863  6565  6560    1
  6864  7233  7156    1
  6865  8877  8928    1
  6866  5424  5418    1
  6867  3731  3783    1
  6868   867   918    1
  6869  3133  3144    1
  6870  3133  3128    1
  6871  5445  5496    1
  6872   299   351    1
  6873  8284  8278    1
  6874  6591  6643    1
  6875  3727  3778    1
  6876  5993  6004    1
  6877  5993  5988    1
  6878  8305  8356    1
  6879  4852  4846    1
  6880  3159  3211    1
  6881   295   346    1
  6882  2561  2572    1
  6883  2561  2556    1
  6884  6587  6638    1
  6885  4873  4924    1
  6886  8853  8864    1
  6887  8853  8848    1
  6888  7712  7706    1
  6889  6019  6071    1
  6890  3155  3206    1
  6891  5421  5432    1
  6892  5421  5416    1
  6893  7733  7784    1
  6894  2003  2094    1
  6895  2003  2096    1
  6896  2587  2639    1
  6897  8879  8931    1
  6898  6015  6066    1
  6899  8281  8292    1
  6900  8281  8276    1
  6901  7140  7134    1
  6902  5447  5499    1
  6903  2583  2634    1
  6904  4849  4860    1
  6905  4849  4844    1
  6906  8875  8926    1
  6907  7161  7212    1
  6908  1431  1522    1
  6909  1431  1524    1
  6910  8307  8359    1
  6911  5443  5494    1
  6912  7709  7720    1
  6913  7709  7704    1
  6914  4291  4382    1
  6915  4291  4384    1
  6916  4875  4927    1
  6917  8303  8354    1
  6918   859   950    1
  6919   859   952    1
  6920  7735  7787    1
  6921  4871  4922    1
  6922  2008  2091    1
  6923  2008  2089    1
  6924  2008  2242    1
  6925  7137  7148    1
  6926  7137  7132    1
  6927  3719  3810    1
  6928  3719  3812    1
  6929  7731  7782    1
  6930   287   378    1
  6931   287   380    1
  6932  6579  6670    1
  6933  6579  6672    1
  6934  7163  7215    1
  6935  1436  1519    1
  6936  1436  1517    1
  6937  1436  1670    1
  6938  3147  3238    1
  6939  3147  3240    1
  6940  7159  7210    1
  6941  4296  4379    1
  6942  4296  4377    1
  6943  4296  4530    1
  6944  6007  6098    1
  6945  6007  6100    1
  6946   864   947    1
  6947   864   945    1
  6948   864  1098    1
  6949  2575  2666    1
  6950  2575  2668    1
  6951  8867  8958    1
  6952  8867  8960    1
  6953  3724  3807    1
  6954  3724  3805    1
  6955  3724  3958    1
  6956  5435  5526    1
  6957  5435  5528    1
  6958   292   375    1
  6959   292   373    1
  6960   292   526    1
  6961  6584  6667    1
  6962  6584  6665    1
  6963  6584  6818    1
  6964  8295  8386    1
  6965  8295  8388    1
  6966  3152  3235    1
  6967  3152  3233    1
  6968  3152  3386    1
  6969  4863  4954    1
  6970  4863  4956    1
  6971  6012  6095    1
  6972  6012  6093    1
  6973  6012  6246    1
  6974  7723  7814    1
  6975  7723  7816    1
  6976  2580  2663    1
  6977  2580  2661    1
  6978  2580  2814    1
  6979  8872  8955    1
  6980  8872  8953    1
  6981  8872  9106    1
  6982  5440  5523    1
  6983  5440  5521    1
  6984  5440  5674    1
  6985  7151  7242    1
  6986  7151  7244    1
  6987  8300  8383    1
  6988  8300  8381    1
  6989  8300  8534    1
  6990  4868  4951    1
  6991  4868  4949    1
  6992  4868  5102    1
  6993  7728  7811    1
  6994  7728  7809    1
  6995  7728  7962    1
  6996  2064  2197    1
  6997  2065  4352   ar
  6998  2065  2196   ar
  6999  7156  7239    1
  7000  7156  7237    1
  7001  7156  7390    1
  7002  1986  1984    1
  7003  1986  1987    2
  7004  1492  1625    1
  7005  1493  3780   ar
  7006  1493  1624   ar
  7007  4352  4485   ar
  7008  1414  1412    1
  7009  1414  1415    2
  7010  4353  6640   ar
  7011  4353  4484   ar
  7012   920  1053    1
  7013   921  3208   ar
  7014   921  1052   ar
  7015  4274  4272    1
  7016  4274  4275    2
  7017  2094  2203    1
  7018  3780  3913   ar
  7019   842   840    1
  7020   842   843    2
  7021  3781  6068   ar
  7022  3781  3912   ar
  7023  2062  2195    1
  7024  2067  1490   ar
  7025  2067  2194   ar
  7026   348   481    1
  7027  6640  6773   ar
  7028   349  2636   ar
  7029   349   480   ar
  7030  3702  3700    1
  7031  3702  3703    2
  7032  1522  1631    1
  7033  6641  8928   ar
  7034  6641  6772   ar
  7035  3208  3341   ar
  7036  2091  2202    1
  7037  2089  2200    1
  7038   270   268    1
  7039   270   271    2
  7040  2096  2201    1
  7041  3209  5496   ar
  7042  3209  3340   ar
  7043  1490  1623   ar
  7044  1495   918   ar
  7045  1495  1622   ar
  7046  6562  6560    1
  7047  6562  6563    2
  7048  4382  4491    1
  7049  1984  1990    1
  7050  6068  6201   ar
  7051  3130  3128    1
  7052  3130  3131    2
  7053   950  1059    1
  7054  6069  8356   ar
  7055  6069  6200   ar
  7056  4350  4483    1
  7057  4355  3778   ar
  7058  4355  4482   ar
  7059  2636  2769   ar
  7060  1519  1630    1
  7061  1517  1628    1
  7062  8928  9061   ar
  7063  1524  1629    1
  7064  2637  4924   ar
  7065  2637  2768   ar
  7066   918  1051   ar
  7067   923   346   ar
  7068   923  1050   ar
  7069  5990  5988    1
  7070  5990  5991    2
  7071  3810  3919    1
  7072  8929  9060    1
  7073  1412  1418    1
  7074  5496  5629   ar
  7075  4379  4490    1
  7076  4377  4488    1
  7077  2558  2556    1
  7078  2558  2559    2
  7079   378   487    1
  7080  4384  4489    1
  7081  5497  7784   ar
  7082  5497  5628   ar
  7083  3778  3911   ar
  7084  3783  3206   ar
  7085  3783  3910   ar
  7086  8850  8848    1
  7087  8850  8851    2
  7088  6670  6779    1
  7089   947  1058    1
  7090  4272  4278    1
  7091   945  1056    1
  7092  8356  8489   ar
  7093   952  1057    1
  7094   346   479   ar
  7095   351   478    1
  7096  5418  5416    1
  7097  5418  5419    2
  7098  3238  3347    1
  7099  8357  8488    1
  7100  6638  6771    1
  7101   840   846    1
  7102  6643  6066   ar
  7103  6643  6770   ar
  7104  4924  5057   ar
  7105  3807  3918    1
  7106  3805  3916    1
  7107  3812  3917    1
  7108  4925  7212   ar
  7109  4925  5056   ar
  7110  3206  3339   ar
  7111  3211  2634   ar
  7112  3211  3338   ar
  7113  8278  8276    1
  7114  8278  8279    2
  7115  6098  6207    1
  7116   375   486    1
  7117  3700  3706    1
  7118   373   484    1
  7119  7784  7917   ar
  7120  6667  6778    1
  7121   380   485    1
  7122  6665  6776    1
  7123  4846  4844    1
  7124  4846  4847    2
  7125  2666  2775    1
  7126  6672  6777    1
  7127  7785  7916    1
  7128  6066  6199   ar
  7129   268   274    1
  7130  6071  5494   ar
  7131  6071  6198   ar
  7132  8958  9067    1
  7133  3235  3346    1
  7134  6560  6566    1
  7135  3233  3344    1
  7136  3240  3345    1
  7137  2634  2767   ar
  7138  2639  2766    1
  7139  7706  7704    1
  7140  7706  7707    2
  7141  5526  5635    1
  7142  8926  9059    1
  7143  3128  3134    1
  7144  8931  8354   ar
  7145  8931  9058   ar
  7146  7212  7345   ar
  7147  6095  6206    1
  7148  6093  6204    1
  7149  6100  6205    1
  7150  7213  7344    1
  7151  5494  5627   ar
  7152  5499  4922   ar
  7153  5499  5626   ar
  7154  8386  8495    1
  7155  2663  2774    1
  7156  5988  5994    1
  7157  2661  2772    1
  7158  8955  9066    1
  7159  2668  2773    1
  7160  8953  9064    1
  7161  7134  7132    1
  7162  7134  7135    2
  7163  4954  5063    1
  7164  8960  9065    1
  7165  8354  8487   ar
  7166  2556  2562    1
  7167  8359  7782   ar
  7168  8359  8486   ar
  7169  5523  5634    1
  7170  8848  8854    1
  7171  5521  5632    1
  7172  5528  5633    1
  7173  4922  5055   ar
  7174  4927  5054    1
  7175  7814  7923    1
  7176  5416  5422    1
  7177  8383  8494    1
  7178  8381  8492    1
  7179  8388  8493    1
  7180  7782  7915   ar
  7181  7787  7210   ar
  7182  7787  7914   ar
  7183  4951  5062    1
  7184  8276  8282    1
  7185  4949  5060    1
  7186  4956  5061    1
  7187  7242  7351    1
  7188  4844  4850    1
  7189  7811  7922    1
  7190  7809  7920    1
  7191  7816  7921    1
  7192  7210  7343   ar
  7193  7215  7342    1
  7194  7704  7710    1
  7195  7239  7350    1
  7196  7237  7348    1
  7197  7244  7349    1
  7198  7132  7138    1
  7199  2160  2243    1
  7200  2197  2203    2
  7201  2197  2209    1
  7202  2196  2202    1
  7203  2196  2206   ar
  7204  1588  1671    1
  7205  2243  2150    1
  7206  2203  2235    1
  7207  4448  4531    1
  7208  1625  1631    2
  7209  1625  1637    1
  7210  1987  1993    1
  7211  1987  1985    1
  7212  2202  2236    1
  7213  1624  1630    1
  7214  1624  1634   ar
  7215  1016  1099    1
  7216  1671  1578    1
  7217  1631  1663    1
  7218  4485  4491    1
  7219  4485  4497   ar
  7220  4484  4490    1
  7221  4484  4494   ar
  7222  3876  3959    1
  7223  4531  4438    1
  7224  1053  1059    2
  7225  1053  1065    1
  7226  4491  4523    1
  7227  1415  1421    1
  7228  1415  1413    1
  7229  2200  2194    1
  7230  2200  2238    1
  7231  1630  1664    1
  7232  1052  1058    1
  7233  1052  1062   ar
  7234   444   527    1
  7235  2201  2195    2
  7236  2201  2233    1
  7237  1099  1006    1
  7238  1059  1091    1
  7239  6736  6819    1
  7240  2194  2204   ar
  7241  3913  3919    1
  7242  3913  3925   ar
  7243  4275  4281    1
  7244  4275  4273    1
  7245  4490  4524    1
  7246  3912  3918    1
  7247  3912  3922   ar
  7248  3304  3387    1
  7249  3959  3866    1
  7250   481   487    2
  7251   481   493    1
  7252  2195  2211    1
  7253  3919  3951    1
  7254   843   849    1
  7255   843   841    1
  7256  1628  1622    1
  7257  1628  1666    1
  7258  6773  6779    1
  7259  6773  6785   ar
  7260  1058  1092    1
  7261   480   486    1
  7262   480   490   ar
  7263  1629  1623    1
  7264  1629  1661    1
  7265  2242  2161    1
  7266   527   434    1
  7267   487   519    1
  7268  6772  6778    1
  7269  6772  6782   ar
  7270  6164  6247    1
  7271  1622  1632   ar
  7272  6819  6726    1
  7273  3341  3347    1
  7274  3341  3353   ar
  7275  6779  6811    1
  7276  3703  3709    1
  7277  3703  3701    1
  7278  4488  4482    1
  7279  4488  4526    1
  7280  3918  3952    1
  7281  3340  3346    1
  7282  3340  3350   ar
  7283  2732  2815    1
  7284  4489  4483    2
  7285  4489  4521    1
  7286  3387  3294    1
  7287  1623  1639   ar
  7288  3347  3379    1
  7289  9024  9107    1
  7290   271   277    1
  7291   271   269    1
  7292  4482  4492   ar
  7293  1056  1050    1
  7294  1056  1094    1
  7295  6201  6207    1
  7296  6201  6213   ar
  7297   486   520    1
  7298  6563  6569    1
  7299  6563  6561    1
  7300  6778  6812    1
  7301  1057  1051    1
  7302  1057  1089    1
  7303  1670  1589    1
  7304  6200  6206    1
  7305  6200  6210   ar
  7306  5592  5675    1
  7307  1050  1060   ar
  7308  6247  6154    1
  7309  2769  2775    1
  7310  2769  2781   ar
  7311  4483  4499    1
  7312  6207  6239    1
  7313  3131  3137    1
  7314  3131  3129    1
  7315  3916  3910    1
  7316  3916  3954    1
  7317  9061  9067    1
  7318  9061  9073   ar
  7319  3346  3380    1
  7320  2768  2774    1
  7321  2768  2778   ar
  7322  3917  3911    1
  7323  3917  3949    1
  7324  4530  4449    1
  7325  2815  2722    1
  7326  1051  1067   ar
  7327  2775  2807    1
  7328  9060  9066    2
  7329  9060  9070    1
  7330  8452  8535    1
  7331  3910  3920   ar
  7332   484   478    2
  7333   484   522    1
  7334  9107  9014    1
  7335  5629  5635    1
  7336  5629  5641   ar
  7337  9067  9099    1
  7338  5991  5997    1
  7339  5991  5989    1
  7340  6776  6770    1
  7341  6776  6814    1
  7342  6206  6240    1
  7343   485   479    1
  7344   485   517    1
  7345  1098  1017    1
  7346  5628  5634    1
  7347  5628  5638   ar
  7348  5020  5103    1
  7349  6777  6771    2
  7350  6777  6809    1
  7351   478   488    1
  7352  5675  5582    1
  7353  3911  3927   ar
  7354  5635  5667    1
  7355  1990  2001    1
  7356  1990  1985    1
  7357  2559  2565    1
  7358  2559  2557    1
  7359  6770  6780   ar
  7360  3344  3338    1
  7361  3344  3382    1
  7362  8489  8495    1
  7363  8489  8501   ar
  7364  2774  2808    1
  7365  8851  8857    1
  7366  8851  8849    1
  7367  9066  9100    1
  7368  3345  3339    1
  7369  3345  3377    1
  7370  3958  3877    1
  7371   479   495   ar
  7372  8488  8494    2
  7373  8488  8498    1
  7374  7880  7963    1
  7375  3338  3348   ar
  7376  8535  8442    1
  7377  5057  5063    1
  7378  5057  5069   ar
  7379  6771  6787    1
  7380  8495  8527    1
  7381  5419  5425    1
  7382  5419  5417    1
  7383  6204  6198    1
  7384  6204  6242    1
  7385  5634  5668    1
  7386   526   445    1
  7387  5056  5062    1
  7388  5056  5066   ar
  7389  6205  6199    1
  7390  6205  6237    1
  7391  6818  6737    1
  7392  5103  5010    1
  7393  3339  3355   ar
  7394  5063  5095    1
  7395  1418  1429    1
  7396  1418  1413    1
  7397  6198  6208   ar
  7398  2772  2766    2
  7399  2772  2810    1
  7400  7917  7923    1
  7401  7917  7929   ar
  7402  8279  8285    1
  7403  8279  8277    1
  7404  9064  9058    1
  7405  9064  9102    1
  7406  8494  8528    1
  7407  2773  2767    1
  7408  2773  2805    1
  7409  3386  3305    1
  7410  7916  7922    2
  7411  7916  7926    1
  7412  7308  7391    1
  7413  9065  9059    2
  7414  9065  9097    1
  7415  2766  2776    1
  7416  7963  7870    1
  7417  6199  6215   ar
  7418  7923  7955    1
  7419  4278  4289    1
  7420  4278  4273    1
  7421  4847  4853    1
  7422  4847  4845    1
  7423  9058  9068   ar
  7424  5632  5626    1
  7425  5632  5670    1
  7426  5062  5096    1
  7427  5633  5627    1
  7428  5633  5665    1
  7429  6246  6165    1
  7430  2767  2783   ar
  7431   846   857    1
  7432   846   841    1
  7433  5626  5636   ar
  7434  7345  7351    1
  7435  7345  7357   ar
  7436  9059  9075    1
  7437  7707  7713    1
  7438  7707  7705    1
  7439  8492  8486    1
  7440  8492  8530    1
  7441  7922  7956    1
  7442  2814  2733    1
  7443  7344  7350    2
  7444  7344  7354    1
  7445  8493  8487    1
  7446  8493  8525    1
  7447  9106  9025    1
  7448  7391  7298    1
  7449  5627  5643   ar
  7450  7351  7383    1
  7451  3706  3717    1
  7452  3706  3701    1
  7453  8486  8496   ar
  7454  5060  5054    2
  7455  5060  5098    1
  7456  5061  5055    1
  7457  5061  5093    1
  7458  5674  5593    1
  7459   274   285    1
  7460   274   269    1
  7461  5054  5064    1
  7462  8487  8503   ar
  7463  6566  6577    1
  7464  6566  6561    1
  7465  7135  7141    1
  7466  7135  7133    1
  7467  7920  7914    1
  7468  7920  7958    1
  7469  7350  7384    1
  7470  7921  7915    1
  7471  7921  7953    1
  7472  8534  8453    1
  7473  5055  5071   ar
  7474  3134  3145    1
  7475  3134  3129    1
  7476  7914  7924   ar
  7477  5102  5021    1
  7478  7915  7931   ar
  7479  5994  6005    1
  7480  5994  5989    1
  7481  7348  7342    2
  7482  7348  7386    1
  7483  7349  7343    1
  7484  7349  7381    1
  7485  7962  7881    1
  7486  2562  2573    1
  7487  2562  2557    1
  7488  7342  7352    1
  7489  8854  8865    1
  7490  8854  8849    1
  7491  7343  7359   ar
  7492  5422  5433    1
  7493  5422  5417    1
  7494  7390  7309    1
  7495  8282  8293    1
  7496  8282  8277    1
  7497  4850  4861    1
  7498  4850  4845    1
  7499  7710  7721    1
  7500  7710  7705    1
  7501  7138  7149    1
  7502  7138  7133    1
  7503  1985  1991    1
  7504  1413  1419    1
  7505  4273  4279    1
  7506   841   847    1
  7507  3701  3707    1
  7508   269   275    1
  7509  6561  6567    1
  7510  2235  2150    1
  7511  3129  3135    1
  7512  2209  2159    1
  7513  2236  2147    1
  7514  5989  5995    1
  7515  1663  1578    1
  7516  2233  2150    1
  7517  2238  2147    1
  7518  2557  2563    1
  7519  2206  4497   ar
  7520  2206  2157    1
  7521  8849  8855    1
  7522  4523  4438    1
  7523  1637  1587    1
  7524  1664  1575    1
  7525  5417  5423    1
  7526  1091  1006    1
  7527  1661  1578    1
  7528  1666  1575    1
  7529  4497  4447    1
  7530  4524  4435    1
  7531  1634  3925   ar
  7532  1634  1585    1
  7533  8277  8283    1
  7534  3951  3866    1
  7535  4521  4438    1
  7536  1065  1015    1
  7537  1092  1003    1
  7538  4526  4435    1
  7539  4845  4851    1
  7540   519   434    1
  7541  1089  1006    1
  7542  4494  6785   ar
  7543  4494  4445    1
  7544  6811  6726    1
  7545  1094  1003    1
  7546  3925  3875    1
  7547  3952  3863    1
  7548  1062  3353   ar
  7549  1062  1013    1
  7550  7705  7711    1
  7551  3379  3294    1
  7552  3949  3866    1
  7553  2204  1639   ar
  7554  2204  2155    1
  7555   493   443    1
  7556   520   431    1
  7557  3954  3863    1
  7558  6785  6735    1
  7559  6812  6723    1
  7560   517   434    1
  7561  3922  6213   ar
  7562  3922  3873    1
  7563  2211  2212    1
  7564  6239  6154    1
  7565  6809  6726    1
  7566   522   431    1
  7567  3353  3303    1
  7568  3380  3291    1
  7569  6814  6723    1
  7570   490  2781   ar
  7571   490   441    1
  7572  7133  7139    1
  7573  2807  2722    1
  7574  3377  3294    1
  7575  1632  1067   ar
  7576  1632  1583    1
  7577  6782  9073   ar
  7578  6782  6733    1
  7579  9099  9014    1
  7580  3382  3291    1
  7581  6213  6163    1
  7582  6240  6151    1
  7583  3350  5641   ar
  7584  3350  3301    1
  7585  1639  1640    1
  7586  5667  5582    1
  7587  6237  6154    1
  7588  4492  3927   ar
  7589  4492  4443    1
  7590  2781  2731    1
  7591  2808  2719    1
  7592  6242  6151    1
  7593  9073  9023    1
  7594  9100  9011    1
  7595  2805  2722    1
  7596  1060   495   ar
  7597  1060  1011    1
  7598  6210  8501   ar
  7599  6210  6161    1
  7600  4499  4500    1
  7601  8527  8442    1
  7602  9097  9014    1
  7603  2810  2719    1
  7604  5641  5591    1
  7605  5668  5579    1
  7606  9102  9011    1
  7607  2778  5069   ar
  7608  2778  2729    1
  7609  1067  1068    1
  7610  5095  5010    1
  7611  5665  5582    1
  7612  3920  3355   ar
  7613  3920  3871    1
  7614  9070  9021    1
  7615  5670  5579    1
  7616  8501  8451    1
  7617  8528  8439    1
  7618   488   439    1
  7619  5638  7929   ar
  7620  5638  5589    1
  7621  3927  3928    1
  7622  7955  7870    1
  7623  8525  8442    1
  7624  6780  6215   ar
  7625  6780  6731    1
  7626  5069  5019    1
  7627  5096  5007    1
  7628  8530  8439    1
  7629   495   496    1
  7630  5093  5010    1
  7631  3348  2783   ar
  7632  3348  3299    1
  7633  8498  8449    1
  7634  6787  6788    1
  7635  5098  5007    1
  7636  7929  7879    1
  7637  7956  7867    1
  7638  5066  7357   ar
  7639  5066  5017    1
  7640  3355  3356    1
  7641  7383  7298    1
  7642  7953  7870    1
  7643  6208  5643   ar
  7644  6208  6159    1
  7645  7958  7867    1
  7646  2776  2727    1
  7647  7926  7877    1
  7648  6215  6216    1
  7649  9068  8503   ar
  7650  9068  9019    1
  7651  7357  7307    1
  7652  7384  7295    1
  7653  2783  2784    1
  7654  7381  7298    1
  7655  5636  5071   ar
  7656  5636  5587    1
  7657  9075  9076    1
  7658  7386  7295    1
  7659  7354  7305    1
  7660  5643  5644    1
  7661  8496  7931   ar
  7662  8496  8447    1
  7663  5064  5015    1
  7664  8503  8504    1
  7665  5071  5072    1
  7666  7924  7359   ar
  7667  7924  7875    1
  7668  7931  7932    1
  7669  7352  7303    1
  7670  2150  2231    1
  7671  2150  2229    1
  7672  2150  2219    1
  7673  7359  7360    1
  7674  1578  1659    1
  7675  1578  1657    1
  7676  1578  1647    1
  7677  4438  4519    1
  7678  4438  4517    1
  7679  4438  4507    1
  7680  1006  1087    1
  7681  1006  1085    1
  7682  1006  1075    1
  7683  2147  2224    1
  7684  2147  2226    1
  7685  2147  2222    1
  7686  3866  3947    1
  7687  3866  3945    1
  7688  3866  3935    1
  7689   434   515    1
  7690   434   513    1
  7691   434   503    1
  7692  6726  6807    1
  7693  6726  6805    1
  7694  6726  6795    1
  7695  1575  1652    1
  7696  1575  1654    1
  7697  1575  1650    1
  7698  3294  3375    1
  7699  3294  3373    1
  7700  3294  3363    1
  7701  4435  4512    1
  7702  4435  4514    1
  7703  4435  4510    1
  7704  6154  6235    1
  7705  6154  6233    1
  7706  6154  6223    1
  7707  1003  1080    1
  7708  1003  1082    1
  7709  1003  1078    1
  7710  2722  2803    1
  7711  2722  2801    1
  7712  2722  2791    1
  7713  9014  9095    1
  7714  9014  9093    1
  7715  9014  9083    1
  7716  3863  3940    1
  7717  3863  3942    1
  7718  3863  3938    1
  7719  5582  5663    1
  7720  5582  5661    1
  7721  5582  5651    1
  7722   431   508    1
  7723   431   510    1
  7724   431   506    1
  7725  6723  6800    1
  7726  6723  6802    1
  7727  6723  6798    1
  7728  8442  8523    1
  7729  8442  8521    1
  7730  8442  8511    1
  7731  3291  3368    1
  7732  3291  3370    1
  7733  3291  3366    1
  7734  5010  5091    1
  7735  5010  5089    1
  7736  5010  5079    1
  7737  6151  6228    1
  7738  6151  6230    1
  7739  6151  6226    1
  7740  7870  7951    1
  7741  7870  7949    1
  7742  7870  7939    1
  7743  2719  2796    1
  7744  2719  2798    1
  7745  2719  2794    1
  7746  9011  9088    1
  7747  9011  9090    1
  7748  9011  9086    1
  7749  5579  5656    1
  7750  5579  5658    1
  7751  5579  5654    1
  7752  7298  7379    1
  7753  7298  7377    1
  7754  7298  7367    1
  7755  8439  8516    1
  7756  8439  8518    1
  7757  8439  8514    1
  7758  5007  5084    1
  7759  5007  5086    1
  7760  5007  5082    1
  7761  7867  7944    1
  7762  7867  7946    1
  7763  7867  7942    1
  7764  1994  1988    1
  7765  2170  2240    1
  7766  7295  7372    1
  7767  7295  7374    1
  7768  7295  7370    1
  7769  1422  1416    1
  7770  1991  1999    1
  7771  1991  1988    1
  7772  1991  2002    1
  7773  1598  1668    1
  7774  4282  4276    1
  7775  2231  2149    1
  7776  4458  4528    1
  7777   850   844    1
  7778  1419  1427    1
  7779  1419  1416    1
  7780  1419  1430    1
  7781  1026  1096    1
  7782  3710  3704    1
  7783  4279  4287    1
  7784  4279  4276    1
  7785  4279  4290    1
  7786  1659  1577    1
  7787  3886  3956    1
  7788   278   272    1
  7789  6570  6564    1
  7790   847   855    1
  7791   847   844    1
  7792   847   858    1
  7793   454   524    1
  7794  4519  4437    1
  7795  6746  6816    1
  7796  3138  3132    1
  7797  3707  3715    1
  7798  3707  3704    1
  7799  3707  3718    1
  7800  1087  1005    1
  7801  3314  3384    1
  7802  5998  5992    1
  7803   275   283    1
  7804   275   272    1
  7805   275   286    1
  7806  2224  2153    1
  7807  6567  6575    1
  7808  6567  6564    1
  7809  6567  6578    1
  7810  3947  3865    1
  7811  1996  1988    1
  7812  6174  6244    1
  7813  2212  2168    1
  7814  2566  2560    1
  7815  8858  8852    1
  7816  3135  3143    1
  7817  3135  3132    1
  7818  3135  3146    1
  7819   515   433    1
  7820  2742  2812    1
  7821  6807  6725    1
  7822  9034  9104    1
  7823  5426  5420    1
  7824  1652  1581    1
  7825  5995  6003    1
  7826  5995  5992    1
  7827  5995  6006    1
  7828  3375  3293    1
  7829  1424  1416    1
  7830  5602  5672    1
  7831  1640  1596    1
  7832  1640  2169    1
  7833  8286  8280    1
  7834  2563  2571    1
  7835  2563  2560    1
  7836  2563  2574    1
  7837  4512  4441    1
  7838  8855  8863    1
  7839  8855  8852    1
  7840  8855  8866    1
  7841  6235  6153    1
  7842  4284  4276    1
  7843  8462  8532    1
  7844  4500  4456    1
  7845  4854  4848    1
  7846  1080  1009    1
  7847  5423  5431    1
  7848  5423  5420    1
  7849  5423  5434    1
  7850  2803  2721    1
  7851   852   844    1
  7852  5030  5100    1
  7853  1068  1024    1
  7854  1068  1597    1
  7855  9095  9013    1
  7856  7714  7708    1
  7857  3940  3869    1
  7858  8283  8291    1
  7859  8283  8280    1
  7860  8283  8294    1
  7861  5663  5581    1
  7862  3712  3704    1
  7863  7890  7960    1
  7864  3928  3884    1
  7865  3928  4457    1
  7866   508   437    1
  7867  4851  4859    1
  7868  4851  4848    1
  7869  4851  4862    1
  7870  6800  6729    1
  7871   280   272    1
  7872   496   452    1
  7873   496  1025    1
  7874  8523  8441    1
  7875  6572  6564    1
  7876  6788  6744    1
  7877  7142  7136    1
  7878  3368  3297    1
  7879  7711  7719    1
  7880  7711  7708    1
  7881  7711  7722    1
  7882  5091  5009    1
  7883  3140  3132    1
  7884  7318  7388    1
  7885  3356  3312    1
  7886  3356  3885    1
  7887  6228  6157    1
  7888  7951  7869    1
  7889  6000  5992    1
  7890  6216  6172    1
  7891  6216  6745    1
  7892  1988  1998    1
  7893  2796  2725    1
  7894  7139  7147    1
  7895  7139  7136    1
  7896  7139  7150    1
  7897  9088  9017    1
  7898  2568  2560    1
  7899  2784  2740    1
  7900  2784  3313    1
  7901  8860  8852    1
  7902  9076  9032    1
  7903  5656  5585    1
  7904  7379  7297    1
  7905  5428  5420    1
  7906  5644  5600    1
  7907  5644  6173    1
  7908  1416  1426    1
  7909  8516  8445    1
  7910  8288  8280    1
  7911  8504  8460    1
  7912  8504  9033    1
  7913  4276  4286    1
  7914  5084  5013    1
  7915  4856  4848    1
  7916  5072  5028    1
  7917  5072  5601    1
  7918   844   854    1
  7919  2229  2149    1
  7920  7944  7873    1
  7921  7716  7708    1
  7922  7932  7888    1
  7923  7932  8461    1
  7924  3704  3714    1
  7925   272   282    1
  7926  6564  6574    1
  7927  1657  1577    1
  7928  7372  7301    1
  7929  2226  2153    1
  7930  7144  7136    1
  7931  7360  7316    1
  7932  7360  7889    1
  7933  3132  3142    1
  7934  4517  4437    1
  7935  5992  6002    1
  7936  1085  1005    1
  7937  2240  2153    1
  7938  1654  1581    1
  7939  2560  2570    1
  7940  8852  8862    1
  7941  3945  3865    1
  7942  4514  4441    1
  7943  5420  5430    1
  7944   513   433    1
  7945  1668  1581    1
  7946  6805  6725    1
  7947  1082  1009    1
  7948  8280  8290    1
  7949  3373  3293    1
  7950  4528  4441    1
  7951  3942  3869    1
  7952  4848  4858    1
  7953  1096  1009    1
  7954  6233  6153    1
  7955   510   437    1
  7956  6802  6729    1
  7957  7708  7718    1
  7958  2801  2721    1
  7959  3956  3869    1
  7960  9093  9013    1
  7961  3370  3297    1
  7962   524   437    1
  7963  5661  5581    1
  7964  6816  6729    1
  7965  6230  6157    1
  7966  7136  7146    1
  7967  3384  3297    1
  7968  8521  8441    1
  7969  2798  2725    1
  7970  9090  9017    1
  7971  5089  5009    1
  7972  6244  6157    1
  7973  5658  5585    1
  7974  2812  2725    1
  7975  7949  7869    1
  7976  9104  9017    1
  7977  8518  8445    1
  7978  5672  5585    1
  7979  5086  5013    1
  7980  7377  7297    1
  7981  8532  8445    1
  7982  7946  7873    1
  7983  5100  5013    1
  7984  2219  2181    1
  7985  7960  7873    1
  7986  7374  7301    1
  7987  1647  1609    1
  7988  7388  7301    1
  7989  4507  4469    1
  7990  1075  1037    1
  7991  2222  2178    1
  7992  3935  3897    1
  7993   503   465    1
  7994  1650  1606    1
  7995  6795  6757    1
  7996  3363  3325    1
  7997  4510  4466    1
  7998  1078  1034    1
  7999  6223  6185    1
  8000  2149  2220    1
  8001  2149  2269    1
  8002  2791  2753    1
  8003  3938  3894    1
  8004  9083  9045    1
  8005   506   462    1
  8006  5651  5613    1
  8007  1577  1648    1
  8008  1577  1697    1
  8009  6798  6754    1
  8010  2153  2216    1
  8011  2153  2266    1
  8012  3366  3322    1
  8013  8511  8473    1
  8014  4437  4508    1
  8015  4437  4557    1
  8016  5079  5041    1
  8017  1005  1076    1
  8018  1005  1125    1
  8019  6226  6182    1
  8020  1581  1644    1
  8021  1581  1694    1
  8022  2794  2750    1
  8023  7939  7901    1
  8024  3865  3936    1
  8025  3865  3985    1
  8026  9086  9042    1
  8027  4441  4504    1
  8028  4441  4554    1
  8029   433   504    1
  8030   433   553    1
  8031  5654  5610    1
  8032  6725  6796    1
  8033  6725  6845    1
  8034  1009  1072    1
  8035  1009  1122    1
  8036  7367  7329    1
  8037  3293  3364    1
  8038  3293  3413    1
  8039  8514  8470    1
  8040  3869  3932    1
  8041  3869  3982    1
  8042  5082  5038    1
  8043  6153  6224    1
  8044  6153  6273    1
  8045   437   500    1
  8046   437   550    1
  8047  6729  6792    1
  8048  6729  6842    1
  8049  2721  2792    1
  8050  2721  2841    1
  8051  7942  7898    1
  8052  9013  9084    1
  8053  9013  9133    1
  8054  3297  3360    1
  8055  3297  3410    1
  8056  5581  5652    1
  8057  5581  5701    1
  8058  6157  6220    1
  8059  6157  6270    1
  8060  7370  7326    1
  8061  8441  8512    1
  8062  8441  8561    1
  8063  2725  2788    1
  8064  2725  2838    1
  8065  9017  9080    1
  8066  9017  9130    1
  8067  5009  5080    1
  8068  5009  5129    1
  8069  5585  5648    1
  8070  5585  5698    1
  8071  7869  7940    1
  8072  7869  7989    1
  8073  8445  8508    1
  8074  8445  8558    1
  8075  5013  5076    1
  8076  5013  5126    1
  8077  7297  7368    1
  8078  7297  7417    1
  8079  2167  2189    1
  8080  7873  7936    1
  8081  7873  7986    1
  8082  1595  1617    1
  8083  7301  7364    1
  8084  7301  7414    1
  8085  2165  2192    1
  8086  4455  4477    1
  8087  1023  1045    1
  8088  1593  1620    1
  8089  3883  3905    1
  8090   451   473    1
  8091  4453  4480    1
  8092  6743  6765    1
  8093  1021  1048    1
  8094  3311  3333    1
  8095  3881  3908    1
  8096  6171  6193    1
  8097   449   476    1
  8098  2739  2761    1
  8099  6741  6768    1
  8100  9031  9053    1
  8101  3309  3336    1
  8102  5599  5621    1
  8103  6169  6196    1
  8104  8459  8481    1
  8105  2737  2764    1
  8106  5027  5049    1
  8107  9029  9056    1
  8108  5597  5624    1
  8109  7887  7909    1
  8110  8457  8484    1
  8111  5025  5052    1
  8112  7315  7337    1
  8113  7885  7912    1
  8114  2181  2220    1
  8115  2181  2185    1
  8116  7313  7340    1
  8117  1609  1648    1
  8118  1609  1613    1
  8119  4469  4508    1
  8120  4469  4473    1
  8121  1037  1076    1
  8122  1037  1041    1
  8123  2178  2216    1
  8124  2178  2182    1
  8125  3897  3936    1
  8126  3897  3901    1
  8127   465   504    1
  8128   465   469    1
  8129  6757  6796    1
  8130  6757  6761    1
  8131  1606  1644    1
  8132  1606  1610    1
  8133  3325  3364    1
  8134  3325  3329    1
  8135  4466  4504    1
  8136  4466  4470    1
  8137  6185  6224    1
  8138  6185  6189    1
  8139  1034  1072    1
  8140  1034  1038    1
  8141  2753  2792    1
  8142  2753  2757    1
  8143  9045  9084    1
  8144  9045  9049    1
  8145  3894  3932    1
  8146  3894  3898    1
  8147  5613  5652    1
  8148  5613  5617    1
  8149   462   500    1
  8150   462   466    1
  8151  6754  6792    1
  8152  6754  6758    1
  8153  8473  8512    1
  8154  8473  8477    1
  8155  3322  3360    1
  8156  3322  3326    1
  8157  5041  5080    1
  8158  5041  5045    1
  8159  6182  6220    1
  8160  6182  6186    1
  8161  7901  7940    1
  8162  7901  7905    1
  8163  2750  2788    1
  8164  2750  2754    1
  8165  9042  9080    1
  8166  9042  9046    2
  8167  5610  5648    1
  8168  5610  5614    1
  8169  7329  7368    1
  8170  7329  7333    1
  8171  8470  8508    1
  8172  8470  8474    2
  8173  5038  5076    1
  8174  5038  5042    1
  8175  7898  7936    1
  8176  7898  7902    2
  8177  2252  2256    1
  8178  2269  2198    1
  8179  2189  2185    1
  8180  7326  7364    1
  8181  7326  7330    2
  8182  1680  1684    1
  8183  1697  1626    1
  8184  4540  4544    1
  8185  1617  1613   ar
  8186  1617  2191   ar
  8187  4557  4486    1
  8188  1108  1112    1
  8189  4477  4473    1
  8190  1125  1054    1
  8191  2192  2182   ar
  8192  2192  4475   ar
  8193  3968  3972    1
  8194  1045  1041   ar
  8195  1045  1619   ar
  8196  3985  3914    1
  8197   536   540    1
  8198  6828  6832    1
  8199  3905  3901   ar
  8200  3905  4479   ar
  8201  2266  2198    1
  8202   553   482    1
  8203  1620  1610   ar
  8204  1620  3903   ar
  8205  6845  6774    1
  8206  3396  3400    1
  8207   473   469   ar
  8208   473  1047   ar
  8209  6765  6761    1
  8210  3413  3342    1
  8211  4480  4470   ar
  8212  4480  6763   ar
  8213  6256  6260    1
  8214  3333  3329   ar
  8215  3333  3907   ar
  8216  1694  1626    1
  8217  1048  1038   ar
  8218  1048  3331   ar
  8219  6273  6202    1
  8220  2824  2828    1
  8221  9116  9120    1
  8222  6193  6189   ar
  8223  6193  6767   ar
  8224  4554  4486    1
  8225  2841  2770    1
  8226  3908  3898   ar
  8227  3908  6191   ar
  8228  9133  9062    1
  8229  5684  5688    1
  8230  2761  2757   ar
  8231  2761  3335   ar
  8232  1122  1054    1
  8233   476   466   ar
  8234   476  2759   ar
  8235  9053  9049    1
  8236  5701  5630    1
  8237  6768  6758   ar
  8238  6768  9051   ar
  8239  8544  8548    1
  8240  5621  5617   ar
  8241  5621  6195   ar
  8242  3982  3914    1
  8243  3336  3326   ar
  8244  3336  5619   ar
  8245  8561  8490    1
  8246  5112  5116    1
  8247   550   482    1
  8248  8481  8477   ar
  8249  8481  9055   ar
  8250  6842  6774    1
  8251  5129  5058    1
  8252  6196  6186   ar
  8253  6196  8479   ar
  8254  7972  7976    1
  8255  5049  5045   ar
  8256  5049  5623   ar
  8257  3410  3342    1
  8258  2246  2260    1
  8259  2764  2754   ar
  8260  2764  5047   ar
  8261  7989  7918    1
  8262  9056  9046    1
  8263  7909  7905   ar
  8264  7909  8483   ar
  8265  6270  6202    1
  8266  5624  5614   ar
  8267  5624  7907   ar
  8268  7400  7404    1
  8269  2838  2770    1
  8270  1674  1688    1
  8271  9130  9062    1
  8272  7417  7346    1
  8273  8484  8474    1
  8274  2256  2260    1
  8275  2256  2262    2
  8276  7337  7333   ar
  8277  7337  7911   ar
  8278  5698  5630    1
  8279  4534  4548    1
  8280  2185  2190    2
  8281  5052  5042   ar
  8282  5052  7335   ar
  8283  2198  2254    1
  8284  1102  1116    1
  8285  8558  8490    1
  8286  7912  7902    1
  8287  1684  1688   ar
  8288  1684  1690   ar
  8289  2166  2187    1
  8290  5126  5058    1
  8291  3962  3976    1
  8292  1613  1618   ar
  8293  1626  1682    1
  8294  4544  4548    1
  8295  4544  4550    2
  8296   530   544    1
  8297  7986  7918    1
  8298  6822  6836    1
  8299  4473  4478    2
  8300  7340  7330    1
  8301  4486  4542    1
  8302  1112  1116   ar
  8303  1112  1118   ar
  8304  1594  1615    1
  8305  3390  3404    1
  8306  1041  1046   ar
  8307  1054  1110    1
  8308  2182  2186   ar
  8309  3972  3976   ar
  8310  3972  3978   ar
  8311  4454  4475    1
  8312  7414  7346    1
  8313  4541  2262    1
  8314  6250  6264    1
  8315  3901  3906   ar
  8316  3914  3970    1
  8317   540   544   ar
  8318   540   546   ar
  8319  6832  6836    1
  8320  6832  6838    2
  8321  1022  1043    1
  8322  2818  2832    1
  8323   469   474   ar
  8324   482   538    1
  8325  9110  9124    1
  8326  6761  6766    2
  8327  1610  1614   ar
  8328  6774  6830    1
  8329  3400  3404   ar
  8330  3400  3406   ar
  8331  3882  3903    1
  8332  3969  1690    1
  8333  5678  5692    1
  8334  3329  3334   ar
  8335  3342  3398    1
  8336  4470  4474   ar
  8337  6260  6264   ar
  8338  6260  6266   ar
  8339   450   471    1
  8340  6742  6763    1
  8341  6829  4550    1
  8342  8538  8552    1
  8343  6189  6194   ar
  8344  1038  1042   ar
  8345  6202  6258    1
  8346  2828  2832   ar
  8347  2828  2834   ar
  8348  9120  9124    2
  8349  9120  9126    1
  8350  3310  3331    1
  8351  3397  1118    1
  8352  2162  2191    1
  8353  5106  5120    1
  8354  2757  2762   ar
  8355  1688  4551   ar
  8356  2770  2826    1
  8357  9049  9054    2
  8358  3898  3902   ar
  8359  9062  9118    1
  8360  5688  5692   ar
  8361  5688  5694   ar
  8362  6170  6191    1
  8363  6257  3978    1
  8364  7966  7980    1
  8365  5617  5622   ar
  8366   466   470   ar
  8367  5630  5686    1
  8368  6758  6762   ar
  8369  8548  8552    2
  8370  8548  8554    1
  8371  2738  2759    1
  8372  2825   546    1
  8373  1590  1619    1
  8374  1116  3979   ar
  8375  9030  9051    1
  8376  9117  6838    1
  8377  8477  8482   ar
  8378  3326  3330   ar
  8379  8490  8546    1
  8380  5116  5120   ar
  8381  5116  5122   ar
  8382  5598  5619    1
  8383  5685  3406    1
  8384  4450  4479    1
  8385  7394  7408    1
  8386  5045  5050   ar
  8387  3976  6839   ar
  8388  5058  5114    1
  8389  6186  6190   ar
  8390  7976  7980    2
  8391  7976  7982    1
  8392  1018  1047    1
  8393   544  3407   ar
  8394  8458  8479    1
  8395  8545  6266    1
  8396  7905  7910   ar
  8397  2754  2758   ar
  8398  7918  7974    1
  8399  1690  4549   ar
  8400  9046  9050    1
  8401  5026  5047    1
  8402  5113  2834    1
  8403  3878  3907    1
  8404  3404  6267   ar
  8405  5614  5618   ar
  8406  2187  2183    1
  8407  7404  7408    2
  8408  7404  7410    1
  8409   446   475    1
  8410  7886  7907    1
  8411  7973  5694    1
  8412  6738  6767    1
  8413  7333  7338   ar
  8414  6264  9127   ar
  8415  7346  7402    1
  8416  1118  3977   ar
  8417  8474  8478    1
  8418  3306  3335    1
  8419  2832  5695   ar
  8420  5042  5046   ar
  8421  1615  1611    1
  8422  3978  6837   ar
  8423  7314  7335    1
  8424  7401  5122    1
  8425  6166  6195    1
  8426  5692  8555   ar
  8427   546  3405   ar
  8428  7902  7906    1
  8429  4475  4471   ar
  8430  2734  2763    1
  8431  9026  9055    1
  8432  1043  1039    1
  8433  3406  6265   ar
  8434  5594  5623    1
  8435  5120  7983   ar
  8436  2191  2184   ar
  8437  7330  7334    1
  8438  3903  3899   ar
  8439  6266  9125   ar
  8440  8454  8483    1
  8441   471   467    1
  8442  2834  5693   ar
  8443  6763  6759   ar
  8444  5022  5051    1
  8445  1619  1612   ar
  8446  3331  3327   ar
  8447  5694  8553   ar
  8448  7882  7911    1
  8449  4479  4472   ar
  8450  6191  6187   ar
  8451  1047  1040   ar
  8452  2759  2755   ar
  8453  2251  2258    1
  8454  5122  7981   ar
  8455  9051  9047   ar
  8456  7310  7339    1
  8457  3907  3900   ar
  8458  5619  5615   ar
  8459   475   468    1
  8460  6767  6760   ar
  8461  1679  1686    1
  8462  8479  8475   ar
  8463  3335  3328   ar
  8464  5047  5043   ar
  8465  4539  4546    1
  8466  2263  2249    1
  8467  2263  2257    1
  8468  6195  6188   ar
  8469  1107  1114    1
  8470  7907  7903   ar
  8471  2763  2756    1
  8472  9055  9048   ar
  8473  3967  3974    1
  8474  1691  1677    1
  8475  1691  1685    1
  8476  5623  5616   ar
  8477   535   542    1
  8478  7335  7331   ar
  8479  6827  6834    1
  8480  4551  4537    1
  8481  4551  4545   ar
  8482  8483  8476   ar
  8483  3395  3402    1
  8484  1119  1105    1
  8485  1119  1113    1
  8486  2254  2258   ar
  8487  2254  2264   ar
  8488  5051  5044    1
  8489  2261  2257    1
  8490  2261  2245    1
  8491  6255  6262    1
  8492  3979  3965    1
  8493  3979  3973   ar
  8494  7911  7904   ar
  8495  2823  2830    1
  8496   547   533    1
  8497   547   541    1
  8498  9115  9122    1
  8499  1682  1686   ar
  8500  1682  1692   ar
  8501  6839  6825    1
  8502  6839  6833   ar
  8503  1689  1685    1
  8504  1689  1673    1
  8505  5683  5690    1
  8506  3407  3393    1
  8507  3407  3401   ar
  8508  4542  4546   ar
  8509  4542  4552   ar
  8510  7339  7332    1
  8511  4549  4545   ar
  8512  4549  4533    1
  8513  8543  8550    1
  8514  1110  1114   ar
  8515  1110  1120   ar
  8516  6267  6253    1
  8517  6267  6261   ar
  8518  1117  1113    1
  8519  1117  1101    1
  8520  5111  5118    1
  8521  2835  2821    1
  8522  2835  2829    1
  8523  3970  3974   ar
  8524  3970  3980   ar
  8525  9127  9113    1
  8526  9127  9121   ar
  8527  3977  3973   ar
  8528  3977  3961    1
  8529  7971  7978    1
  8530   538   542   ar
  8531   538   548   ar
  8532  5695  5681    1
  8533  5695  5689   ar
  8534  6830  6834   ar
  8535  6830  6840   ar
  8536   545   541    1
  8537   545   529    1
  8538  6837  6833   ar
  8539  6837  6821    1
  8540  3398  3402   ar
  8541  3398  3408   ar
  8542  8555  8541    1
  8543  8555  8549   ar
  8544  3405  3401   ar
  8545  3405  3389    1
  8546  7399  7406    1
  8547  2258  2265   ar
  8548  5123  5109    1
  8549  5123  5117    1
  8550  6258  6262   ar
  8551  6258  6268   ar
  8552  6265  6261   ar
  8553  6265  6249    1
  8554  2826  2830   ar
  8555  2826  2836   ar
  8556  7983  7969    1
  8557  7983  7977   ar
  8558  2257  2199    2
  8559  9118  9122   ar
  8560  9118  9128   ar
  8561  2833  2829    1
  8562  2833  2817    1
  8563  1686  1693   ar
  8564  9125  9121   ar
  8565  9125  9109    1
  8566  5686  5690   ar
  8567  5686  5696   ar
  8568  5693  5689   ar
  8569  5693  5677    1
  8570  4546  4553   ar
  8571  7411  7397    1
  8572  7411  7405    1
  8573  1685  1627    2
  8574  8546  8550   ar
  8575  8546  8556   ar
  8576  1114  1121   ar
  8577  8553  8549   ar
  8578  8553  8537    1
  8579  5114  5118   ar
  8580  5114  5124   ar
  8581  4545  4487    1
  8582  2247  2264    1
  8583  5121  5117    1
  8584  5121  5105    1
  8585  3974  3981   ar
  8586  1113  1055    2
  8587  7974  7978   ar
  8588  7974  7984   ar
  8589   542   549   ar
  8590  7981  7977   ar
  8591  7981  7965    1
  8592  6834  6841   ar
  8593  3973  3915    1
  8594  1675  1692    1
  8595  3402  3409   ar
  8596   541   483    2
  8597  7402  7406   ar
  8598  7402  7412   ar
  8599  6833  6775    1
  8600  4535  4552    1
  8601  7409  7405    1
  8602  7409  7393    1
  8603  2190  2163    1
  8604  6262  6269   ar
  8605  3401  3343    1
  8606  1103  1120    1
  8607  2830  2837   ar
  8608  9122  9129   ar
  8609  6261  6203    1
  8610  3963  3980    1
  8611  1618  1591    1
  8612  1618  2188   ar
  8613  5690  5697   ar
  8614  2829  2771    2
  8615   531   548    1
  8616  9121  9063    1
  8617  6823  6840    1
  8618  2175  2214    1
  8619  4478  4451    1
  8620  8550  8557   ar
  8621  2264  2259   ar
  8622  5689  5631    1
  8623  3391  3408    1
  8624  1046  1019    1
  8625  1046  1616   ar
  8626  5118  5125   ar
  8627  8549  8491    1
  8628  6251  6268    1
  8629  1603  1642    1
  8630  3906  3879    1
  8631  3906  4476   ar
  8632  7978  7985   ar
  8633  1692  1687   ar
  8634  5117  5059    2
  8635  2819  2836    1
  8636   474   447    1
  8637   474  1044   ar
  8638  9111  9128    1
  8639  4463  4502    1
  8640  6766  6739    1
  8641  2186  2214    1
  8642  2186  4481   ar
  8643  4552  4547   ar
  8644  7977  7919    1
  8645  5679  5696    1
  8646  1031  1070    1
  8647  3334  3307    1
  8648  3334  3904   ar
  8649  7406  7413   ar
  8650  1120  1115   ar
  8651  8539  8556    1
  8652  3891  3930    1
  8653  6194  6167    1
  8654  6194  6764   ar
  8655  1614  1642    1
  8656  1614  3909   ar
  8657  3980  3975   ar
  8658  7405  7347    2
  8659  5107  5124    1
  8660   459   498    1
  8661  2762  2735    1
  8662  2762  3332   ar
  8663  6751  6790    1
  8664   548   543   ar
  8665  9054  9027    1
  8666  4474  4502    1
  8667  4474  6769   ar
  8668  6840  6835   ar
  8669  7967  7984    1
  8670  3319  3358    1
  8671  5622  5595    1
  8672  5622  6192   ar
  8673  1042  1070    1
  8674  1042  3337   ar
  8675  3408  3403   ar
  8676  6179  6218    1
  8677  8482  8455    1
  8678  8482  9052   ar
  8679  3902  3930    1
  8680  3902  6197   ar
  8681  6268  6263   ar
  8682  7395  7412    1
  8683  2747  2786    1
  8684  5050  5023    1
  8685  5050  5620   ar
  8686   470   498    1
  8687   470  2765   ar
  8688  9039  9078    1
  8689  2836  2831   ar
  8690  6762  6790    1
  8691  6762  9057   ar
  8692  9128  9123   ar
  8693  5607  5646    1
  8694  7910  7883    1
  8695  7910  8480   ar
  8696  3330  3358    1
  8697  3330  5625   ar
  8698  5696  5691   ar
  8699  8467  8506    1
  8700  6190  6218    1
  8701  6190  8485   ar
  8702  8556  8551   ar
  8703  5035  5074    1
  8704  7338  7311    1
  8705  7338  7908   ar
  8706  2758  2786    1
  8707  2758  5053   ar
  8708  5124  5119   ar
  8709  9050  9078    1
  8710  2183  2193    2
  8711  2183  2179    1
  8712  7895  7934    1
  8713  5618  5646    1
  8714  5618  7913   ar
  8715  7984  7979   ar
  8716  8478  8506    1
  8717  1611  1621    2
  8718  1611  1607    1
  8719  7323  7362    1
  8720  5046  5074    1
  8721  5046  7341   ar
  8722  2265  2248    1
  8723  2265  2255   ar
  8724  7412  7407   ar
  8725  4471  4481   ar
  8726  4471  4467    1
  8727  7906  7934    1
  8728  1039  1049    2
  8729  1039  1035    1
  8730  2199  2267    1
  8731  2199  2268    1
  8732  2184  2188   ar
  8733  2184  2180    1
  8734  1693  1676    1
  8735  1693  1683   ar
  8736  3899  3909   ar
  8737  3899  3895    1
  8738  7334  7362    1
  8739  4553  4536    1
  8740  4553  4543   ar
  8741   467   477    2
  8742   467   463    1
  8743  1627  1695    1
  8744  1627  1696    1
  8745  6759  6769   ar
  8746  6759  6755    1
  8747  1612  1616   ar
  8748  1612  1608    1
  8749  1121  1104    1
  8750  1121  1111   ar
  8751  3327  3337   ar
  8752  3327  3323    1
  8753  4487  4555    1
  8754  4487  4556    1
  8755  4472  4476   ar
  8756  4472  4468    1
  8757  3981  3964    1
  8758  3981  3971   ar
  8759  1055  1123    1
  8760  1055  1124    1
  8761  6187  6197   ar
  8762  6187  6183    1
  8763  1040  1044   ar
  8764  1040  1036    1
  8765   549   532    1
  8766   549   539   ar
  8767  2214  2174    1
  8768  6841  6824    1
  8769  6841  6831   ar
  8770  2755  2765   ar
  8771  2755  2751    1
  8772  3915  3983    1
  8773  3915  3984    1
  8774  9047  9057   ar
  8775  9047  9043    1
  8776  3900  3904   ar
  8777  3900  3896    1
  8778  3409  3392    1
  8779  3409  3399   ar
  8780   483   551    1
  8781   483   552    1
  8782  5615  5625   ar
  8783  5615  5611    1
  8784  6775  6843    1
  8785  6775  6844    1
  8786   468   472    2
  8787   468   464    1
  8788  6760  6764   ar
  8789  6760  6756    1
  8790  1642  1602    1
  8791  6269  6252    1
  8792  6269  6259   ar
  8793  3343  3411    1
  8794  3343  3412    1
  8795  8475  8485   ar
  8796  8475  8471    1
  8797  3328  3332   ar
  8798  3328  3324    1
  8799  2837  2820    1
  8800  2837  2827   ar
  8801  4502  4462    1
  8802  9129  9112    1
  8803  9129  9119   ar
  8804  5043  5053   ar
  8805  5043  5039    1
  8806  6203  6271    1
  8807  6203  6272    1
  8808  6188  6192   ar
  8809  6188  6184    1
  8810  1070  1030    1
  8811  5697  5680    1
  8812  5697  5687   ar
  8813  2771  2839    1
  8814  2771  2840    1
  8815  7903  7913   ar
  8816  7903  7899    1
  8817  9063  9131    1
  8818  9063  9132    1
  8819  2756  2760    2
  8820  2756  2752    1
  8821  9048  9052   ar
  8822  9048  9044    1
  8823  3930  3890    1
  8824  8557  8540    1
  8825  8557  8547   ar
  8826  5631  5699    1
  8827  5631  5700    1
  8828  2259  2255   ar
  8829  2259  2244    1
  8830  5616  5620   ar
  8831  5616  5612    1
  8832   498   458    1
  8833  2267  2152    1
  8834  5125  5108    1
  8835  5125  5115   ar
  8836  6790  6750    1
  8837  7331  7341   ar
  8838  7331  7327    1
  8839  8491  8559    1
  8840  8491  8560    1
  8841  8476  8480   ar
  8842  8476  8472    1
  8843  3358  3318    1
  8844  7985  7968    1
  8845  7985  7975   ar
  8846  5059  5127    1
  8847  5059  5128    1
  8848  1687  1683   ar
  8849  1687  1672    1
  8850  5044  5048    2
  8851  5044  5040    1
  8852  1695  1580    1
  8853  6218  6178    1
  8854  7919  7987    1
  8855  7919  7988    1
  8856  2193  2164    1
  8857  2268  2148    1
  8858  4547  4543   ar
  8859  4547  4532    1
  8860  7904  7908   ar
  8861  7904  7900    1
  8862  2786  2746    1
  8863  4555  4440    1
  8864  7413  7396    1
  8865  7413  7403   ar
  8866  9078  9038    1
  8867  1115  1111   ar
  8868  1115  1100    1
  8869  1123  1008    1
  8870  5646  5606    1
  8871  7347  7415    1
  8872  7347  7416    1
  8873  1621  1592    1
  8874  1696  1576    1
  8875  3975  3971   ar
  8876  3975  3960    1
  8877  7332  7336    2
  8878  7332  7328    1
  8879  3983  3868    1
  8880  2217  2179    1
  8881  2217  2152    1
  8882  8506  8466    1
  8883  2188  2215    1
  8884   543   539   ar
  8885   543   528    1
  8886  4481  4452    1
  8887  4556  4436    1
  8888  6835  6831   ar
  8889  6835  6820    1
  8890   551   436    1
  8891  5074  5034    1
  8892  6843  6728    1
  8893  1049  1020    1
  8894  1124  1004    1
  8895  3403  3399   ar
  8896  3403  3388    1
  8897  2255  2250    1
  8898  3411  3296    1
  8899  1645  1607    1
  8900  1645  1580    1
  8901  7934  7894    1
  8902  1616  1643    1
  8903  3909  3880    1
  8904  3984  3864    1
  8905  6263  6259   ar
  8906  6263  6248    1
  8907  6271  6156    1
  8908   477   448    1
  8909  4505  4467    1
  8910  4505  4440    1
  8911   552   432    1
  8912  2221  2180    1
  8913  2221  2148    1
  8914  4476  4503    1
  8915  2831  2827   ar
  8916  2831  2816    1
  8917  6769  6740    1
  8918  1683  1678    1
  8919  6844  6724    1
  8920  9123  9119   ar
  8921  9123  9108    1
  8922  2839  2724    1
  8923  1073  1035    1
  8924  1073  1008    1
  8925  7362  7322    1
  8926  9131  9016    1
  8927  1044  1071    1
  8928  3337  3308    1
  8929  3412  3292    1
  8930  5691  5687   ar
  8931  5691  5676    1
  8932  4543  4538    1
  8933  5699  5584    1
  8934  3933  3895    1
  8935  3933  3868    1
  8936  1649  1608    1
  8937  1649  1576    1
  8938  3904  3931    1
  8939  6197  6168    1
  8940  1111  1106    1
  8941  6272  6152    1
  8942  8551  8547   ar
  8943  8551  8536    1
  8944   501   463    1
  8945   501   436    1
  8946  8559  8444    1
  8947   472   499    1
  8948  2765  2736    1
  8949  6793  6755    1
  8950  6793  6728    1
  8951  2840  2720    1
  8952  4509  4468    1
  8953  4509  4436    1
  8954  6764  6791    1
  8955  5119  5115   ar
  8956  5119  5104    1
  8957  9057  9028    1
  8958  3971  3966    1
  8959  9132  9012    1
  8960  5127  5012    1
  8961  3361  3323    1
  8962  3361  3296    1
  8963  1077  1036    1
  8964  1077  1004    1
  8965  3332  3359    1
  8966  5625  5596    1
  8967   539   534    1
  8968  5700  5580    1
  8969  7979  7975   ar
  8970  7979  7964    1
  8971  6831  6826    1
  8972  7987  7872    1
  8973  6221  6183    1
  8974  6221  6156    1
  8975  3937  3896    1
  8976  3937  3864    1
  8977  6192  6219    1
  8978  8485  8456    1
  8979  3399  3394    1
  8980  8560  8440    1
  8981  2789  2751    1
  8982  2789  2724    1
  8983   505   464    1
  8984   505   432    1
  8985  2760  2787    1
  8986  5053  5024    1
  8987  9081  9043    1
  8988  9081  9016    1
  8989  5128  5008    1
  8990  6797  6756    1
  8991  6797  6724    1
  8992  9052  9079    1
  8993  7407  7403   ar
  8994  7407  7392    1
  8995  6259  6254    1
  8996  7415  7300    1
  8997  5649  5611    1
  8998  5649  5584    1
  8999  3365  3324    1
  9000  3365  3292    1
  9001  5620  5647    1
  9002  7913  7884    1
  9003  2827  2822    1
  9004  7988  7868    1
  9005  9119  9114    1
  9006  8509  8471    1
  9007  8509  8444    1
  9008  6225  6184    1
  9009  6225  6152    1
  9010  8480  8507    1
  9011  5687  5682    1
  9012  5077  5039    1
  9013  5077  5012    1
  9014  2793  2752    1
  9015  2793  2720    1
  9016  5048  5075    1
  9017  7341  7312    1
  9018  7416  7296    1
  9019  9085  9044    1
  9020  9085  9012    1
  9021  8547  8542    1
  9022  7937  7899    1
  9023  7937  7872    1
  9024  5653  5612    1
  9025  5653  5580    1
  9026  7908  7935    1
  9027  5115  5110    1
  9028  2179  2223    1
  9029  8513  8472    1
  9030  8513  8440    1
  9031  7975  7970    1
  9032  7365  7327    1
  9033  7365  7300    1
  9034  5081  5040    1
  9035  5081  5008    1
  9036  7336  7363    1
  9037  1607  1651    1
  9038  7941  7900    1
  9039  7941  7868    1
  9040  7403  7398    1
  9041  4467  4511    1
  9042  2180  2218    1
  9043  1035  1079    1
  9044  7369  7328    1
  9045  7369  7296    1
  9046  3895  3939    1
  9047  1608  1646    1
  9048   463   507    1
  9049  6755  6799    1
  9050  4468  4506    1
  9051  3323  3367    1
  9052  1036  1074    1
  9053  6183  6227    1
  9054  3896  3934    1
  9055  2751  2795    1
  9056  9043  9087    1
  9057   464   502    1
  9058  6756  6794    1
  9059  5611  5655    1
  9060  3324  3362    1
  9061  8471  8515    1
  9062  6184  6222    1
  9063  5039  5083    1
  9064  2752  2790    1
  9065  9044  9082    1
  9066  7899  7943    1
  9067  5612  5650    1
  9068  8472  8510    1
  9069  7327  7371    1
  9070  5040  5078    1
  9071  7900  7938    1
  9072  7328  7366    1
  9073  2215  2176    1
  9074  2215  2177    1
  9075  2152  2241    1
  9076  2152  2225    1
  9077  2152  2227    1
  9078  1643  1604    1
  9079  1643  1605    1
  9080  1580  1669    1
  9081  1580  1653    1
  9082  1580  1655    1
  9083  4503  4464    1
  9084  4503  4465    1
  9085  2148  2230    1
  9086  2148  2228    1
  9087  1071  1032    1
  9088  1071  1033    1
  9089  4440  4529    1
  9090  4440  4513    1
  9091  4440  4515    1
  9092  1008  1097    1
  9093  1008  1081    1
  9094  1008  1083    1
  9095  3931  3892    1
  9096  3931  3893    1
  9097  1576  1658    1
  9098  1576  1656    1
  9099   499   460    1
  9100   499   461    1
  9101  3868  3957    1
  9102  3868  3941    1
  9103  3868  3943    1
  9104  6791  6752    1
  9105  6791  6753    1
  9106  4436  4518    1
  9107  4436  4516    1
  9108   436   525    1
  9109   436   509    1
  9110   436   511    1
  9111  3359  3320    1
  9112  3359  3321    1
  9113  6728  6817    1
  9114  6728  6801    1
  9115  6728  6803    1
  9116  1004  1086    1
  9117  1004  1084    1
  9118  3296  3385    1
  9119  3296  3369    1
  9120  3296  3371    1
  9121  6219  6180    1
  9122  6219  6181    1
  9123  3864  3946    1
  9124  3864  3944    1
  9125  2787  2748    1
  9126  2787  2749    1
  9127  6156  6245    1
  9128  6156  6229    1
  9129  6156  6231    1
  9130  9079  9040    1
  9131  9079  9041    1
  9132   432   514    1
  9133   432   512    1
  9134  2223  2146    1
  9135  6724  6806    1
  9136  6724  6804    1
  9137  2724  2813    1
  9138  2724  2797    1
  9139  2724  2799    1
  9140  5647  5608    1
  9141  5647  5609    1
  9142  9016  9105    1
  9143  9016  9089    1
  9144  9016  9091    1
  9145  3292  3374    1
  9146  3292  3372    1
  9147  5584  5673    1
  9148  5584  5657    1
  9149  5584  5659    1
  9150  8507  8468    1
  9151  8507  8469    1
  9152  1651  1574    1
  9153  6152  6234    1
  9154  6152  6232    1
  9155  5075  5036    1
  9156  5075  5037    1
  9157  8444  8533    1
  9158  8444  8517    1
  9159  8444  8519    1
  9160  2720  2802    1
  9161  2720  2800    1
  9162  4511  4434    1
  9163  9012  9094    1
  9164  9012  9092    1
  9165  5012  5101    1
  9166  5012  5085    1
  9167  5012  5087    1
  9168  7935  7896    1
  9169  7935  7897    1
  9170  1079  1002    1
  9171  5580  5662    1
  9172  5580  5660    1
  9173  2218  2151    1
  9174  7872  7961    1
  9175  7872  7945    1
  9176  7872  7947    1
  9177  3939  3862    1
  9178  8440  8522    1
  9179  8440  8520    1
  9180  7363  7324    1
  9181  7363  7325    1
  9182   507   430    1
  9183  2172  2213    1
  9184  5008  5090    1
  9185  5008  5088    1
  9186  6799  6722    1
  9187  1646  1579    1
  9188  7300  7389    1
  9189  7300  7373    1
  9190  7300  7375    1
  9191  3367  3290    1
  9192  7868  7950    1
  9193  7868  7948    1
  9194  4506  4439    1
  9195  1600  1641    1
  9196  6227  6150    1
  9197  1074  1007    1
  9198  2795  2718    1
  9199  4460  4501    1
  9200  7296  7378    1
  9201  7296  7376    1
  9202  9087  9010    1
  9203  3934  3867    1
  9204  1028  1069    1
  9205  5655  5578    1
  9206   502   435    1
  9207  6794  6727    1
  9208  3888  3929    1
  9209  8515  8438    1
  9210  3362  3295    1
  9211   456   497    1
  9212  5083  5006    1
  9213  6748  6789    1
  9214  6222  6155    1
  9215  3316  3357    1
  9216  7943  7866    1
  9217  2790  2723    1
  9218  9082  9015    1
  9219  6176  6217    1
  9220  5650  5583    1
  9221  2241  2171    1
  9222  2744  2785    1
  9223  7371  7294    1
  9224  9036  9077    1
  9225  8510  8443    1
  9226  5604  5645    1
  9227  5078  5011    1
  9228  1669  1599    1
  9229  8464  8505    1
  9230  2225  2146    1
  9231  7938  7871    1
  9232  4529  4459    1
  9233  5032  5073    1
  9234  1097  1027    1
  9235  7892  7933    1
  9236  1653  1574    1
  9237  7366  7299    1
  9238  3957  3887    1
  9239   525   455    1
  9240  4513  4434    1
  9241  6817  6747    1
  9242  7320  7361    1
  9243  1081  1002    1
  9244  3385  3315    1
  9245  2230  2151    1
  9246  3941  3862    1
  9247  6245  6175    1
  9248   509   430    1
  9249  2813  2743    1
  9250  6801  6722    1
  9251  1658  1579    1
  9252  9105  9035    1
  9253  2138  2132    1
  9254  3369  3290    1
  9255  5673  5603    1
  9256  4518  4439    1
  9257  6229  6150    1
  9258  1086  1007    1
  9259  8533  8463    1
  9260  1566  1560    1
  9261  2797  2718    1
  9262  5101  5031    1
  9263  2140  2132    1
  9264  9089  9010    1
  9265  3946  3867    1
  9266  4426  4420    1
  9267  5657  5578    1
  9268   514   435    1
  9269  7961  7891    1
  9270  6806  6727    1
  9271   994   988    1
  9272  1568  1560    1
  9273  8517  8438    1
  9274  3374  3295    1
  9275  3854  3848    1
  9276  5085  5006    1
  9277  7389  7319    1
  9278  4428  4420    1
  9279  6234  6155    1
  9280   422   416    1
  9281   996   988    1
  9282  6714  6708    1
  9283  7945  7866    1
  9284  2802  2723    1
  9285  9094  9015    1
  9286  3282  3276    1
  9287  3856  3848    1
  9288  5662  5583    1
  9289  2173  2213    1
  9290   424   416    1
  9291  6142  6136    1
  9292  7373  7294    1
  9293  6716  6708    1
  9294  8522  8443    1
  9295  2213  2208    1
  9296  2710  2704    1
  9297  3284  3276    1
  9298  9002  8996    1
  9299  5090  5011    1
  9300  1601  1641    1
  9301  2227  2146    1
  9302  5570  5564    1
  9303  6144  6136    1
  9304  7950  7871    1
  9305  4461  4501    1
  9306  1641  1636    1
  9307  2712  2704    1
  9308  8430  8424    1
  9309  1029  1069    1
  9310  9004  8996    1
  9311  4501  4496    1
  9312  1655  1574    1
  9313  4998  4992    1
  9314  5572  5564    1
  9315  7378  7299    1
  9316  3889  3929    1
  9317  1069  1064    1
  9318  4515  4434    1
  9319  7858  7852    1
  9320   457   497    1
  9321  2228  2151    1
  9322  8432  8424    1
  9323  6749  6789    1
  9324  3929  3924    1
  9325  1083  1002    1
  9326  5000  4992    1
  9327  3317  3357    1
  9328   497   492    1
  9329  6789  6784    1
  9330  3943  3862    1
  9331  7286  7280    1
  9332  1656  1579    1
  9333  7860  7852    1
  9334  6177  6217    1
  9335  3357  3352    1
  9336   511   430    1
  9337  6803  6722    1
  9338  2745  2785    1
  9339  4516  4439    1
  9340  9037  9077    1
  9341  6217  6212    1
  9342  3371  3290    1
  9343  1084  1007    1
  9344  7288  7280    1
  9345  5605  5645    1
  9346  2785  2780    1
  9347  9077  9072    1
  9348  6231  6150    1
  9349  3944  3867    1
  9350  8465  8505    1
  9351  2135  2129    1
  9352  5645  5640    1
  9353  2799  2718    1
  9354   512   435    1
  9355  9091  9010    1
  9356  2156  2207    1
  9357  5033  5073    1
  9358  6804  6727    1
  9359  8505  8500    1
  9360  5659  5578    1
  9361  3372  3295    1
  9362  7893  7933    1
  9363  1563  1557    1
  9364  5073  5068    1
  9365  8519  8438    1
  9366  1584  1635    1
  9367  6232  6155    1
  9368  4423  4417    1
  9369  7933  7928    1
  9370  5087  5006    1
  9371  2132  2143    1
  9372  2132  2127    1
  9373  2800  2723    1
  9374  4444  4495    1
  9375  7321  7361    1
  9376  9092  9015    1
  9377   991   985    1
  9378  7947  7866    1
  9379  1012  1063    1
  9380  5660  5583    1
  9381  3851  3845    1
  9382  7361  7356    1
  9383  2158  2210    1
  9384  1560  1571    1
  9385  1560  1555    1
  9386  3872  3923    1
  9387  8520  8443    1
  9388   419   413    1
  9389  6711  6705    1
  9390  2154  2205    1
  9391  7375  7294    1
  9392   440   491    1
  9393  4420  4431    1
  9394  4420  4415    1
  9395  5088  5011    1
  9396  6732  6783    1
  9397  3279  3273    1
  9398  1586  1638    1
  9399   988   999    1
  9400   988   983    1
  9401  3300  3351    1
  9402  7948  7871    1
  9403  6139  6133    1
  9404  4446  4498    1
  9405  1582  1633    1
  9406  3848  3859    1
  9407  3848  3843    1
  9408  6160  6211    1
  9409  2707  2701    1
  9410  1014  1066    1
  9411  8999  8993    1
  9412   416   427    1
  9413   416   411    1
  9414  4442  4493    1
  9415  2728  2779    1
  9416  6708  6719    1
  9417  6708  6703    1
  9418  7376  7299    1
  9419  9020  9071    1
  9420  5567  5561    1
  9421  3874  3926    1
  9422  1010  1061    1
  9423  3276  3287    1
  9424  3276  3271    1
  9425  5588  5639    1
  9426   442   494    1
  9427  8427  8421    1
  9428  6734  6786    1
  9429  3870  3921    1
  9430  6136  6147    1
  9431  6136  6131    1
  9432  8448  8499    1
  9433  4995  4989    1
  9434  3302  3354    1
  9435   438   489    1
  9436  2704  2715    1
  9437  2704  2699    1
  9438  6730  6781    1
  9439  5016  5067    1
  9440  8996  9007    1
  9441  8996  8991    1
  9442  7855  7849    1
  9443  6162  6214    1
  9444  3298  3349    1
  9445  5564  5575    1
  9446  5564  5559    1
  9447  7876  7927    1
  9448  2146  2237    1
  9449  2146  2239    1
  9450  2730  2782    1
  9451  9022  9074    1
  9452  6158  6209    1
  9453  8424  8435    1
  9454  8424  8419    1
  9455  7283  7277    1
  9456  5590  5642    1
  9457  2726  2777    1
  9458  4992  5003    1
  9459  4992  4987    1
  9460  9018  9069    1
  9461  7304  7355    1
  9462  1574  1665    1
  9463  1574  1667    1
  9464  8450  8502    1
  9465  5586  5637    1
  9466  7852  7863    1
  9467  7852  7847    1
  9468  4434  4525    1
  9469  4434  4527    1
  9470  5018  5070    1
  9471  8446  8497    1
  9472  1002  1093    1
  9473  1002  1095    1
  9474  7878  7930    1
  9475  5014  5065    1
  9476  2151  2234    1
  9477  2151  2232    1
  9478  7280  7291    1
  9479  7280  7275    1
  9480  3862  3953    1
  9481  3862  3955    1
  9482  7874  7925    1
  9483   430   521    1
  9484   430   523    1
  9485  6722  6813    1
  9486  6722  6815    1
  9487  7306  7358    1
  9488  1579  1662    1
  9489  1579  1660    1
  9490  3290  3381    1
  9491  3290  3383    1
  9492  7302  7353    1
  9493  4439  4522    1
  9494  4439  4520    1
  9495  6150  6241    1
  9496  6150  6243    1
  9497  1007  1090    1
  9498  1007  1088    1
  9499  2718  2809    1
  9500  2718  2811    1
  9501  9010  9101    1
  9502  9010  9103    1
  9503  3867  3950    1
  9504  3867  3948    1
  9505  5578  5669    1
  9506  5578  5671    1
  9507   435   518    1
  9508   435   516    1
  9509  6727  6810    1
  9510  6727  6808    1
  9511  8438  8529    1
  9512  8438  8531    1
  9513  3295  3378    1
  9514  3295  3376    1
  9515  5006  5097    1
  9516  5006  5099    1
  9517  6155  6238    1
  9518  6155  6236    1
  9519  7866  7957    1
  9520  7866  7959    1
  9521  2723  2806    1
  9522  2723  2804    1
  9523  9015  9098    1
  9524  9015  9096    1
  9525  5583  5666    1
  9526  5583  5664    1
  9527  7294  7385    1
  9528  7294  7387    1
  9529  8443  8526    1
  9530  8443  8524    1
  9531  5011  5094    1
  9532  5011  5092    1
  9533  7871  7954    1
  9534  7871  7952    1
  9535  2208  4495    2
  9536  7299  7382    1
  9537  7299  7380    1
  9538  2129  2127    1
  9539  2129  2130    2
  9540  1636  3923    2
  9541  1557  1555    1
  9542  1557  1558    2
  9543  4496  6783    2
  9544  1064  3351    2
  9545  4417  4415    1
  9546  4417  4418    2
  9547   985   983    1
  9548   985   986    2
  9549  3924  6211    2
  9550  2210  1633    2
  9551   492  2779    2
  9552  3845  3843    1
  9553  3845  3846    2
  9554  6784  9071    2
  9555   413   411    1
  9556   413   414    2
  9557  3352  5639    2
  9558  1638  1061    2
  9559  6705  6703    1
  9560  6705  6706    2
  9561  2127  2133    1
  9562  3273  3271    1
  9563  3273  3274    2
  9564  6212  8499    2
  9565  4498  3921    2
  9566  2780  5067    2
  9567  1066   489    2
  9568  6133  6131    1
  9569  6133  6134    2
  9570  1555  1561    1
  9571  2701  2699    1
  9572  2701  2702    2
  9573  5640  7927    2
  9574  3926  3349    2
  9575  8993  8991    1
  9576  8993  8994    2
  9577  4415  4421    1
  9578  5561  5559    1
  9579  5561  5562    2
  9580   983   989    1
  9581  6786  6209    2
  9582  5068  7355    2
  9583  3354  2777    2
  9584  8421  8419    1
  9585  8421  8422    2
  9586  3843  3849    1
  9587  4989  4987    1
  9588  4989  4990    2
  9589   411   417    1
  9590  6214  5637    2
  9591  6703  6709    1
  9592  7849  7847    1
  9593  7849  7850    2
  9594  3271  3277    1
  9595  9074  8497    2
  9596  5642  5065    2
  9597  6131  6137    1
  9598  7277  7275    1
  9599  7277  7278    2
  9600  2699  2705    1
  9601  8502  7925    2
  9602  8991  8997    1
  9603  5559  5565    1
  9604  7930  7353    2
  9605  8419  8425    1
  9606  4987  4993    1
  9607  7847  7853    1
  9608  7275  7281    1
  9609  2130  2136    1
  9610  2130  2128    1
  9611  1558  1564    1
  9612  1558  1556    1
  9613  4418  4424    1
  9614  4418  4416    1
  9615   986   992    1
  9616   986   984    1
  9617  3846  3852    1
  9618  3846  3844    1
  9619   414   420    1
  9620   414   412    1
  9621  6706  6712    1
  9622  6706  6704    1
  9623  3274  3280    1
  9624  3274  3272    1
  9625  6134  6140    1
  9626  6134  6132    1
  9627  2133  2144    1
  9628  2133  2128    1
  9629  2702  2708    1
  9630  2702  2700    1
  9631  8994  9000    1
  9632  8994  8992    1
  9633  5562  5568    1
  9634  5562  5560    1
  9635  1561  1572    1
  9636  1561  1556    1
  9637  8422  8428    1
  9638  8422  8420    1
  9639  4421  4432    1
  9640  4421  4416    1
  9641  4990  4996    1
  9642  4990  4988    1
  9643   989  1000    1
  9644   989   984    1
  9645  7850  7856    1
  9646  7850  7848    1
  9647  3849  3860    1
  9648  3849  3844    1
  9649   417   428    1
  9650   417   412    1
  9651  6709  6720    1
  9652  6709  6704    1
  9653  7278  7284    1
  9654  7278  7276    1
  9655  3277  3288    1
  9656  3277  3272    1
  9657  6137  6148    1
  9658  6137  6132    1
  9659  2705  2716    1
  9660  2705  2700    1
  9661  8997  9008    1
  9662  8997  8992    1
  9663  5565  5576    1
  9664  5565  5560    1
  9665  8425  8436    1
  9666  8425  8420    1
  9667  4993  5004    1
  9668  4993  4988    1
  9669  7853  7864    1
  9670  7853  7848    1
  9671  7281  7292    1
  9672  7281  7276    1
  9673  2128  2134    1
  9674  1556  1562    1
  9675  4416  4422    1
  9676   984   990    1
  9677  3844  3850    1
  9678   412   418    1
  9679  6704  6710    1
  9680  3272  3278    1
  9681  6132  6138    1
  9682  2700  2706    1
  9683  8992  8998    1
  9684  5560  5566    1
  9685  8420  8426    1
  9686  4988  4994    1
  9687  7848  7854    1
  9688  7276  7282    1
  9689  2137  2131    1
  9690  1565  1559    1
  9691  2134  2142    1
  9692  2134  2131    1
  9693  2134  2145    1
  9694  4425  4419    1
  9695   993   987    1
  9696  1562  1570    1
  9697  1562  1559    1
  9698  1562  1573    1
  9699  3853  3847    1
  9700  4422  4430    1
  9701  4422  4419    1
  9702  4422  4433    1
  9703   421   415    1
  9704  6713  6707    1
  9705   990   998    1
  9706   990   987    1
  9707   990  1001    1
  9708  3281  3275    1
  9709  3850  3858    1
  9710  3850  3847    1
  9711  3850  3861    1
  9712  6141  6135    1
  9713   418   426    1
  9714   418   415    1
  9715   418   429    1
  9716  6710  6718    1
  9717  6710  6707    1
  9718  6710  6721    1
  9719  2139  2131    1
  9720  2709  2703    1
  9721  9001  8995    1
  9722  3278  3286    1
  9723  3278  3275    1
  9724  3278  3289    1
  9725  5569  5563    1
  9726  6138  6146    1
  9727  6138  6135    1
  9728  6138  6149    1
  9729  1567  1559    1
  9730  8429  8423    1
  9731  2706  2714    1
  9732  2706  2703    1
  9733  2706  2717    1
  9734  8998  9006    1
  9735  8998  8995    1
  9736  8998  9009    1
  9737  4427  4419    1
  9738  4997  4991    1
  9739  5566  5574    1
  9740  5566  5563    1
  9741  5566  5577    1
  9742   995   987    1
  9743  7857  7851    1
  9744  8426  8434    1
  9745  8426  8423    1
  9746  8426  8437    1
  9747  3855  3847    1
  9748  4994  5002    1
  9749  4994  4991    1
  9750  4994  5005    1
  9751   423   415    1
  9752  6715  6707    1
  9753  7285  7279    1
  9754  7854  7862    1
  9755  7854  7851    1
  9756  7854  7865    1
  9757  3283  3275    1
  9758  6143  6135    1
  9759  2131  2141    1
  9760  7282  7290    1
  9761  7282  7279    1
  9762  7282  7293    1
  9763  2711  2703    1
  9764  9003  8995    1
  9765  5571  5563    1
  9766  1559  1569    1
  9767  8431  8423    1
  9768  4419  4429    1
  9769  4999  4991    1
  9770   987   997    1
  9771  7859  7851    1
  9772  3847  3857    1
  9773   415   425    1
  9774  6707  6717    1
  9775  7287  7279    1
  9776  3275  3285    1
  9777  6135  6145    1
  9778  2703  2713    1
  9779  8995  9005    1
  9780  5563  5573    1
  9781  8423  8433    1
  9782  4991  5001    1
  9783  7851  7861    1
  9784  7279  7289    1
  9785  2281  2275    1
  9786  1709  1703    1
  9787  2283  2275    1
  9788  4569  4563    1
  9789  1137  1131    1
  9790  1711  1703    1
  9791  3997  3991    1
  9792  4571  4563    1
  9793   565   559    1
  9794  1139  1131    1
  9795  6857  6851    1
  9796  3425  3419    1
  9797  3999  3991    1
  9798   567   559    1
  9799  6285  6279    1
  9800  6859  6851    1
  9801  2853  2847    1
  9802  3427  3419    1
  9803  9145  9139    1
  9804  5713  5707    1
  9805  6287  6279    1
  9806  2855  2847    1
  9807  8573  8567    1
  9808  9147  9139    1
  9809  5141  5135    1
  9810  5715  5707    1
  9811  8001  7995    1
  9812  8575  8567    1
  9813  5143  5135    1
  9814  7429  7423    1
  9815  8003  7995    1
  9816  7431  7423    1
  9817  2278  2272    1
  9818  1706  1700    1
  9819  4566  4560    1
  9820  2275  2286    1
  9821  2275  2270    1
  9822  1134  1128    1
  9823  3994  3988    1
  9824  1703  1714    1
  9825  1703  1698    1
  9826   562   556    1
  9827  6854  6848    1
  9828  4563  4574    1
  9829  4563  4558    1
  9830  3422  3416    1
  9831  1131  1142    1
  9832  1131  1126    1
  9833  6282  6276    1
  9834  3991  4002    1
  9835  3991  3986    1
  9836  2850  2844    1
  9837  9142  9136    1
  9838   559   570    1
  9839   559   554    1
  9840  6851  6862    1
  9841  6851  6846    1
  9842  5710  5704    1
  9843  3419  3430    1
  9844  3419  3414    1
  9845  8570  8564    1
  9846  6279  6290    1
  9847  6279  6274    1
  9848  5138  5132    1
  9849  2847  2858    1
  9850  2847  2842    1
  9851  9139  9150    1
  9852  9139  9134    1
  9853  7998  7992    1
  9854  5707  5718    1
  9855  5707  5702    1
  9856  8567  8578    1
  9857  8567  8562    1
  9858  7426  7420    1
  9859  5135  5146    1
  9860  5135  5130    1
  9861  7995  8006    1
  9862  7995  7990    1
  9863  7423  7434    1
  9864  7423  7418    1
  9865  2272  2270    1
  9866  2272  2273    2
  9867  1700  1698    1
  9868  1700  1701    2
  9869  4560  4558    1
  9870  4560  4561    2
  9871  1128  1126    1
  9872  1128  1129    2
  9873  3988  3986    1
  9874  3988  3989    2
  9875   556   554    1
  9876   556   557    2
  9877  6848  6846    1
  9878  6848  6849    2
  9879  2270  2276    1
  9880  3416  3414    1
  9881  3416  3417    2
  9882  6276  6274    1
  9883  6276  6277    2
  9884  1698  1704    1
  9885  2844  2842    1
  9886  2844  2845    2
  9887  9136  9134    1
  9888  9136  9137    2
  9889  4558  4564    1
  9890  5704  5702    1
  9891  5704  5705    2
  9892  1126  1132    1
  9893  8564  8562    1
  9894  8564  8565    2
  9895  3986  3992    1
  9896  5132  5130    1
  9897  5132  5133    2
  9898   554   560    1
  9899  6846  6852    1
  9900  7992  7990    1
  9901  7992  7993    2
  9902  3414  3420    1
  9903  6274  6280    1
  9904  7420  7418    1
  9905  7420  7421    2
  9906  2842  2848    1
  9907  9134  9140    1
  9908  5702  5708    1
  9909  8562  8568    1
  9910  5130  5136    1
  9911  7990  7996    1
  9912  7418  7424    1
  9913  2273  2279    1
  9914  2273  2271    1
  9915  1701  1707    1
  9916  1701  1699    1
  9917  4561  4567    1
  9918  4561  4559    1
  9919  1129  1135    1
  9920  1129  1127    1
  9921  3989  3995    1
  9922  3989  3987    1
  9923   557   563    1
  9924   557   555    1
  9925  6849  6855    1
  9926  6849  6847    1
  9927  3417  3423    1
  9928  3417  3415    1
  9929  6277  6283    1
  9930  6277  6275    1
  9931  2276  2287    1
  9932  2276  2271    1
  9933  2845  2851    1
  9934  2845  2843    1
  9935  9137  9143    1
  9936  9137  9135    1
  9937  5705  5711    1
  9938  5705  5703    1
  9939  1704  1715    1
  9940  1704  1699    1
  9941  8565  8571    1
  9942  8565  8563    1
  9943  4564  4575    1
  9944  4564  4559    1
  9945  5133  5139    1
  9946  5133  5131    1
  9947  1132  1143    1
  9948  1132  1127    1
  9949  7993  7999    1
  9950  7993  7991    1
  9951  3992  4003    1
  9952  3992  3987    1
  9953   560   571    1
  9954   560   555    1
  9955  6852  6863    1
  9956  6852  6847    1
  9957  7421  7427    1
  9958  7421  7419    1
  9959  3420  3431    1
  9960  3420  3415    1
  9961  6280  6291    1
  9962  6280  6275    1
  9963  2848  2859    1
  9964  2848  2843    1
  9965  9140  9151    1
  9966  9140  9135    1
  9967  5708  5719    1
  9968  5708  5703    1
  9969  8568  8579    1
  9970  8568  8563    1
  9971  5136  5147    1
  9972  5136  5131    1
  9973  7996  8007    1
  9974  7996  7991    1
  9975  7424  7435    1
  9976  7424  7419    1
  9977  2271  2277    1
  9978  1699  1705    1
  9979  4559  4565    1
  9980  1127  1133    1
  9981  3987  3993    1
  9982   555   561    1
  9983  6847  6853    1
  9984  3415  3421    1
  9985  6275  6281    1
  9986  2843  2849    1
  9987  9135  9141    1
  9988  5703  5709    1
  9989  8563  8569    1
  9990  5131  5137    1
  9991  7991  7997    1
  9992  7419  7425    1
  9993  2280  2274    1
  9994  1708  1702    1
  9995  2277  2285    1
  9996  2277  2274    1
  9997  2277  2288    1
  9998  4568  4562    1
  9999  1136  1130    1
 10000  1705  1713    1
 10001  1705  1702    1
 10002  1705  1716    1
 10003  3996  3990    1
 10004  4565  4573    1
 10005  4565  4562    1
 10006  4565  4576    1
 10007   564   558    1
 10008  6856  6850    1
 10009  1133  1141    1
 10010  1133  1130    1
 10011  1133  1144    1
 10012  3424  3418    1
 10013  3993  4001    1
 10014  3993  3990    1
 10015  3993  4004    1
 10016  6284  6278    1
 10017   561   569    1
 10018   561   558    1
 10019   561   572    1
 10020  6853  6861    1
 10021  6853  6850    1
 10022  6853  6864    1
 10023  2282  2274    1
 10024  2852  2846    1
 10025  9144  9138    1
 10026  3421  3429    1
 10027  3421  3418    1
 10028  3421  3432    1
 10029  5712  5706    1
 10030  6281  6289    1
 10031  6281  6278    1
 10032  6281  6292    1
 10033  1710  1702    1
 10034  8572  8566    1
 10035  2849  2857    1
 10036  2849  2846    1
 10037  2849  2860    1
 10038  9141  9149    1
 10039  9141  9138    1
 10040  9141  9152    1
 10041  4570  4562    1
 10042  5140  5134    1
 10043  5709  5717    1
 10044  5709  5706    1
 10045  5709  5720    1
 10046  1138  1130    1
 10047  8000  7994    1
 10048  8569  8577    1
 10049  8569  8566    1
 10050  8569  8580    1
 10051  3998  3990    1
 10052  5137  5145    1
 10053  5137  5134    1
 10054  5137  5148    1
 10055   566   558    1
 10056  6858  6850    1
 10057  7428  7422    1
 10058  7997  8005    1
 10059  7997  7994    1
 10060  7997  8008    1
 10061  3426  3418    1
 10062  6286  6278    1
 10063  2274  2284    1
 10064  7425  7433    1
 10065  7425  7422    1
 10066  7425  7436    1
 10067  2854  2846    1
 10068  9146  9138    1
 10069  5714  5706    1
 10070  1702  1712    1
 10071  8574  8566    1
 10072  4562  4572    1
 10073  5142  5134    1
 10074  1130  1140    1
 10075  8002  7994    1
 10076  3990  4000    1
 10077   558   568    1
 10078  6850  6860    1
 10079  7430  7422    1
 10080  3418  3428    1
 10081  6278  6288    1
 10082  2846  2856    1
 10083  9138  9148    1
 10084  5706  5716    1
 10085  8566  8576    1
 10086  5134  5144    1
 10087  7994  8004    1
 10088  7422  7432    1
