@<TRIPOS>MOLECULE
Lattice="32.018782 0.0 0.0 -14.043870532898428 28.753623292648026 0.0 -8.625062807759862 -14.478403582935226 26.22054754850901" Properties=species:S:1:pos:R:3 i=294 E=-1376.2643261563 pbc="T T T"
 200 200 0 0 0
SMALL
GASTEIGER

@<TRIPOS>ATOM
      1 N           7.7632    4.5895   13.8644 N.pl3   1  UNL1       -0.3135
      2 N           5.8337    3.7249   14.4349 N.pl3   1  UNL1       -0.3166
      3 C           6.9510    3.5232   13.6989 C.3     1  UNL1        0.1250
      4 C           5.9292    4.9438   15.0770 C.2     1  UNL1        0.0072
      5 C           4.6571    2.8259   14.4561 C.3     1  UNL1        0.0020
      6 H           7.1767    2.6446   13.0824 H       1  UNL1        0.0746
      7 H           5.1328    5.3122   15.7088 H       1  UNL1        0.0793
      8 H           4.1836    2.8684   15.4626 H       1  UNL1        0.0428
      9 H           3.9345    3.1407   13.6736 H       1  UNL1        0.0428
     10 H           4.9976    1.8010   14.2510 H       1  UNL1        0.0428
     11 C           7.1434    5.4846   14.7310 C.2     1  UNL1        0.0074
     12 C          10.0009    7.1599   13.6480 C.3     1  UNL1       -0.0545
     13 H           9.8604    4.4310   14.0053 H       1  UNL1        0.0464
     14 H           9.4363    7.2310   14.5977 H       1  UNL1        0.0263
     15 H          11.0003    6.7974   13.9416 H       1  UNL1        0.0263
     16 C          10.1284    8.5534   13.0124 C.3     1  UNL1       -0.0652
     17 H           9.1555    8.9648   12.6991 H       1  UNL1        0.0230
     18 H          10.7479    8.5019   12.1003 H       1  UNL1        0.0230
     19 H          10.5948    9.2721   13.7039 H       1  UNL1        0.0230
     20 C           9.1077    4.7277   13.2491 C.3     1  UNL1        0.0135
     21 C           9.3797    6.1328   12.6786 C.3     1  UNL1       -0.0374
     22 H           9.1259    3.9613   12.4485 H       1  UNL1        0.0464
     23 H          10.0834    6.0108   11.8312 H       1  UNL1        0.0280
     24 H           8.4428    6.5300   12.2460 H       1  UNL1        0.0280
     25 H           7.6040    6.4255   15.0269 H       1  UNL1        0.0793
     26 N           3.4506   -2.6497   26.9747 N.pl3   2  UNL2       -0.3135
     27 N           1.5212   -3.5143   27.5452 N.pl3   2  UNL2       -0.3166
     28 C           2.6384   -3.7160   26.8092 C.3     2  UNL2        0.1250
     29 C           1.6166   -2.2954   28.1873 C.2     2  UNL2        0.0072
     30 C           0.3446   -4.4133   27.5663 C.3     2  UNL2        0.0020
     31 H           2.8641   -4.5946   26.1927 H       2  UNL2        0.0746
     32 H           0.8203   -1.9270   28.8191 H       2  UNL2        0.0793
     33 H          -0.1290   -4.3708   28.5728 H       2  UNL2        0.0428
     34 H          -0.3780   -4.0985   26.7839 H       2  UNL2        0.0428
     35 H           0.6851   -5.4382   27.3613 H       2  UNL2        0.0428
     36 C           2.8309   -1.7546   27.8413 C.2     2  UNL2        0.0074
     37 C           5.6884   -0.0793   26.7582 C.3     2  UNL2       -0.0545
     38 H           5.5479   -2.8082   27.1156 H       2  UNL2        0.0464
     39 H           5.1238   -0.0082   27.7080 H       2  UNL2        0.0263
     40 H           6.6878   -0.4418   27.0518 H       2  UNL2        0.0263
     41 C           5.8159    1.3142   26.1227 C.3     2  UNL2       -0.0652
     42 H           4.8430    1.7256   25.8094 H       2  UNL2        0.0230
     43 H           6.4354    1.2627   25.2105 H       2  UNL2        0.0230
     44 H           6.2823    2.0329   26.8141 H       2  UNL2        0.0230
     45 C           4.7952   -2.5115   26.3594 C.3     2  UNL2        0.0135
     46 C           5.0671   -1.1064   25.7889 C.3     2  UNL2       -0.0374
     47 H           4.8133   -3.2779   25.5588 H       2  UNL2        0.0464
     48 H           5.7709   -1.2284   24.9414 H       2  UNL2        0.0280
     49 H           4.1302   -0.7092   25.3563 H       2  UNL2        0.0280
     50 H           3.2914   -0.8137   28.1372 H       2  UNL2        0.0793
     51 N           0.7412   18.9663   13.8644 N.pl3   3  UNL3       -0.3135
     52 N          -1.1882   18.1017   14.4349 N.pl3   3  UNL3       -0.3166
     53 C          -0.0710   17.9000   13.6989 C.3     3  UNL3        0.1250
     54 C          -1.0928   19.3206   15.0770 C.2     3  UNL3        0.0072
     55 C          -2.3648   17.2027   14.4561 C.3     3  UNL3        0.0020
     56 H           0.1547   17.0214   13.0824 H       3  UNL3        0.0746
     57 H          -1.8891   19.6890   15.7088 H       3  UNL3        0.0793
     58 H          -2.8384   17.2452   15.4626 H       3  UNL3        0.0428
     59 H          -3.0874   17.5175   13.6736 H       3  UNL3        0.0428
     60 H          -2.0243   16.1779   14.2510 H       3  UNL3        0.0428
     61 C           0.1215   19.8614   14.7310 C.2     3  UNL3        0.0074
     62 C           2.9790   21.5368   13.6480 C.3     3  UNL3       -0.0545
     63 H           2.8385   18.8078   14.0053 H       3  UNL3        0.0464
     64 H           2.4144   21.6078   14.5977 H       3  UNL3        0.0263
     65 H           3.9783   21.1743   13.9416 H       3  UNL3        0.0263
     66 C           3.1065   22.9302   13.0124 C.3     3  UNL3       -0.0652
     67 H           2.1336   23.3416   12.6991 H       3  UNL3        0.0230
     68 H           3.7260   22.8787   12.1003 H       3  UNL3        0.0230
     69 H           3.5729   23.6489   13.7039 H       3  UNL3        0.0230
     70 C           2.0858   19.1045   13.2491 C.3     3  UNL3        0.0135
     71 C           2.3577   20.5096   12.6786 C.3     3  UNL3       -0.0374
     72 H           2.1039   18.3382   12.4485 H       3  UNL3        0.0464
     73 H           3.0615   20.3876   11.8312 H       3  UNL3        0.0280
     74 H           1.4208   20.9068   12.2460 H       3  UNL3        0.0280
     75 H           0.5820   20.8023   15.0269 H       3  UNL3        0.0793
     76 N          -3.5713   11.7271   26.9747 N.pl3   4  UNL4       -0.3135
     77 N          -5.5007   10.8625   27.5452 N.pl3   4  UNL4       -0.3166
     78 C          -4.3835   10.6608   26.8092 C.3     4  UNL4        0.1250
     79 C          -5.4053   12.0814   28.1873 C.2     4  UNL4        0.0072
     80 C          -6.6774    9.9635   27.5663 C.3     4  UNL4        0.0020
     81 H          -4.1578    9.7822   26.1927 H       4  UNL4        0.0746
     82 H          -6.2017   12.4498   28.8191 H       4  UNL4        0.0793
     83 H          -7.1509   10.0060   28.5728 H       4  UNL4        0.0428
     84 H          -7.3999   10.2783   26.7839 H       4  UNL4        0.0428
     85 H          -6.3368    8.9387   27.3613 H       4  UNL4        0.0428
     86 C          -4.1910   12.6222   27.8413 C.2     4  UNL4        0.0074
     87 C          -1.3336   14.2976   26.7582 C.3     4  UNL4       -0.0545
     88 H          -1.4741   11.5686   27.1156 H       4  UNL4        0.0464
     89 H          -1.8982   14.3686   27.7080 H       4  UNL4        0.0263
     90 H          -0.3342   13.9351   27.0518 H       4  UNL4        0.0263
     91 C          -1.2061   15.6910   26.1227 C.3     4  UNL4       -0.0652
     92 H          -2.1789   16.1024   25.8094 H       4  UNL4        0.0230
     93 H          -0.5865   15.6395   25.2105 H       4  UNL4        0.0230
     94 H          -0.7396   16.4097   26.8141 H       4  UNL4        0.0230
     95 C          -2.2268   11.8653   26.3594 C.3     4  UNL4        0.0135
     96 C          -1.9548   13.2704   25.7889 C.3     4  UNL4       -0.0374
     97 H          -2.2086   11.0989   25.5588 H       4  UNL4        0.0464
     98 H          -1.2510   13.1484   24.9414 H       4  UNL4        0.0280
     99 H          -2.8917   13.6676   25.3563 H       4  UNL4        0.0280
    100 H          -3.7305   13.5631   28.1372 H       4  UNL4        0.0793
    101 N          23.7726    4.5895   13.8644 N.pl3   5  UNL5       -0.3135
    102 N          21.8431    3.7249   14.4349 N.pl3   5  UNL5       -0.3166
    103 C          22.9604    3.5232   13.6989 C.3     5  UNL5        0.1250
    104 C          21.9386    4.9438   15.0770 C.2     5  UNL5        0.0072
    105 C          20.6665    2.8259   14.4561 C.3     5  UNL5        0.0020
    106 H          23.1861    2.6446   13.0824 H       5  UNL5        0.0746
    107 H          21.1422    5.3122   15.7088 H       5  UNL5        0.0793
    108 H          20.1929    2.8684   15.4626 H       5  UNL5        0.0428
    109 H          19.9439    3.1407   13.6736 H       5  UNL5        0.0428
    110 H          21.0070    1.8010   14.2510 H       5  UNL5        0.0428
    111 C          23.1528    5.4846   14.7310 C.2     5  UNL5        0.0074
    112 C          26.0103    7.1599   13.6480 C.3     5  UNL5       -0.0545
    113 H          25.8698    4.4310   14.0053 H       5  UNL5        0.0464
    114 H          25.4457    7.2310   14.5977 H       5  UNL5        0.0263
    115 H          27.0097    6.7974   13.9416 H       5  UNL5        0.0263
    116 C          26.1378    8.5534   13.0124 C.3     5  UNL5       -0.0652
    117 H          25.1649    8.9648   12.6991 H       5  UNL5        0.0230
    118 H          26.7573    8.5019   12.1003 H       5  UNL5        0.0230
    119 H          26.6042    9.2721   13.7039 H       5  UNL5        0.0230
    120 C          25.1171    4.7277   13.2491 C.3     5  UNL5        0.0135
    121 C          25.3891    6.1328   12.6786 C.3     5  UNL5       -0.0374
    122 H          25.1353    3.9613   12.4485 H       5  UNL5        0.0464
    123 H          26.0928    6.0108   11.8312 H       5  UNL5        0.0280
    124 H          24.4521    6.5300   12.2460 H       5  UNL5        0.0280
    125 H          23.6134    6.4255   15.0269 H       5  UNL5        0.0793
    126 N          19.4600   -2.6497   26.9747 N.pl3   6  UNL6       -0.3135
    127 N          17.5306   -3.5143   27.5452 N.pl3   6  UNL6       -0.3166
    128 C          18.6478   -3.7160   26.8092 C.3     6  UNL6        0.1250
    129 C          17.6260   -2.2954   28.1873 C.2     6  UNL6        0.0072
    130 C          16.3540   -4.4133   27.5663 C.3     6  UNL6        0.0020
    131 H          18.8735   -4.5946   26.1927 H       6  UNL6        0.0746
    132 H          16.8297   -1.9270   28.8191 H       6  UNL6        0.0793
    133 H          15.8804   -4.3708   28.5728 H       6  UNL6        0.0428
    134 H          15.6314   -4.0985   26.7839 H       6  UNL6        0.0428
    135 H          16.6945   -5.4382   27.3613 H       6  UNL6        0.0428
    136 C          18.8403   -1.7546   27.8413 C.2     6  UNL6        0.0074
    137 C          21.6978   -0.0793   26.7582 C.3     6  UNL6       -0.0545
    138 H          21.5573   -2.8082   27.1156 H       6  UNL6        0.0464
    139 H          21.1332   -0.0082   27.7080 H       6  UNL6        0.0263
    140 H          22.6971   -0.4418   27.0518 H       6  UNL6        0.0263
    141 C          21.8253    1.3142   26.1227 C.3     6  UNL6       -0.0652
    142 H          20.8524    1.7256   25.8094 H       6  UNL6        0.0230
    143 H          22.4448    1.2627   25.2105 H       6  UNL6        0.0230
    144 H          22.2917    2.0329   26.8141 H       6  UNL6        0.0230
    145 C          20.8046   -2.5115   26.3594 C.3     6  UNL6        0.0135
    146 C          21.0765   -1.1064   25.7889 C.3     6  UNL6       -0.0374
    147 H          20.8227   -3.2779   25.5588 H       6  UNL6        0.0464
    148 H          21.7803   -1.2284   24.9414 H       6  UNL6        0.0280
    149 H          20.1396   -0.7092   25.3563 H       6  UNL6        0.0280
    150 H          19.3008   -0.8137   28.1372 H       6  UNL6        0.0793
    151 N          16.7506   18.9663   13.8644 N.pl3   7  UNL7       -0.3135
    152 N          14.8212   18.1017   14.4349 N.pl3   7  UNL7       -0.3166
    153 C          15.9384   17.9000   13.6989 C.3     7  UNL7        0.1250
    154 C          14.9166   19.3206   15.0770 C.2     7  UNL7        0.0072
    155 C          13.6446   17.2027   14.4561 C.3     7  UNL7        0.0020
    156 H          16.1641   17.0214   13.0824 H       7  UNL7        0.0746
    157 H          14.1203   19.6890   15.7088 H       7  UNL7        0.0793
    158 H          13.1710   17.2452   15.4626 H       7  UNL7        0.0428
    159 H          12.9220   17.5175   13.6736 H       7  UNL7        0.0428
    160 H          13.9851   16.1779   14.2510 H       7  UNL7        0.0428
    161 C          16.1309   19.8614   14.7310 C.2     7  UNL7        0.0074
    162 C          18.9884   21.5368   13.6480 C.3     7  UNL7       -0.0545
    163 H          18.8479   18.8078   14.0053 H       7  UNL7        0.0464
    164 H          18.4238   21.6078   14.5977 H       7  UNL7        0.0263
    165 H          19.9877   21.1743   13.9416 H       7  UNL7        0.0263
    166 C          19.1159   22.9302   13.0124 C.3     7  UNL7       -0.0652
    167 H          18.1430   23.3416   12.6991 H       7  UNL7        0.0230
    168 H          19.7354   22.8787   12.1003 H       7  UNL7        0.0230
    169 H          19.5823   23.6489   13.7039 H       7  UNL7        0.0230
    170 C          18.0952   19.1045   13.2491 C.3     7  UNL7        0.0135
    171 C          18.3671   20.5096   12.6786 C.3     7  UNL7       -0.0374
    172 H          18.1133   18.3382   12.4485 H       7  UNL7        0.0464
    173 H          19.0709   20.3876   11.8312 H       7  UNL7        0.0280
    174 H          17.4302   20.9068   12.2460 H       7  UNL7        0.0280
    175 H          16.5914   20.8023   15.0269 H       7  UNL7        0.0793
    176 N          12.4381   11.7271   26.9747 N.pl3   8  UNL8       -0.3135
    177 N          10.5086   10.8625   27.5452 N.pl3   8  UNL8       -0.3166
    178 C          11.6259   10.6608   26.8092 C.3     8  UNL8        0.1250
    179 C          10.6041   12.0814   28.1873 C.2     8  UNL8        0.0072
    180 C           9.3320    9.9635   27.5663 C.3     8  UNL8        0.0020
    181 H          11.8516    9.7822   26.1927 H       8  UNL8        0.0746
    182 H           9.8077   12.4498   28.8191 H       8  UNL8        0.0793
    183 H           8.8585   10.0060   28.5728 H       8  UNL8        0.0428
    184 H           8.6095   10.2783   26.7839 H       8  UNL8        0.0428
    185 H           9.6726    8.9387   27.3613 H       8  UNL8        0.0428
    186 C          11.8184   12.6222   27.8413 C.2     8  UNL8        0.0074
    187 C          14.6758   14.2976   26.7582 C.3     8  UNL8       -0.0545
    188 H          14.5353   11.5686   27.1156 H       8  UNL8        0.0464
    189 H          14.1112   14.3686   27.7080 H       8  UNL8        0.0263
    190 H          15.6752   13.9351   27.0518 H       8  UNL8        0.0263
    191 C          14.8033   15.6910   26.1227 C.3     8  UNL8       -0.0652
    192 H          13.8305   16.1024   25.8094 H       8  UNL8        0.0230
    193 H          15.4229   15.6395   25.2105 H       8  UNL8        0.0230
    194 H          15.2698   16.4097   26.8141 H       8  UNL8        0.0230
    195 C          13.7826   11.8653   26.3594 C.3     8  UNL8        0.0135
    196 C          14.0546   13.2704   25.7889 C.3     8  UNL8       -0.0374
    197 H          13.8008   11.0989   25.5588 H       8  UNL8        0.0464
    198 H          14.7584   13.1484   24.9414 H       8  UNL8        0.0280
    199 H          13.1177   13.6676   25.3563 H       8  UNL8        0.0280
    200 H          12.2789   13.5631   28.1372 H       8  UNL8        0.0793
@<TRIPOS>BOND
     1   123   121    1
     2    23    21    1
     3    73    71    1
     4   173   171    1
     5   118   116    1
     6    68    66    1
     7   168   166    1
     8    18    16    1
     9   174   171    1
    10    24    21    1
    11   124   121    1
    12    74    71    1
    13   172   170    1
    14    22    20    1
    15   122   120    1
    16    72    70    1
    17    71    70    1
    18    71    62    1
    19    21    20    1
    20    21    12    1
    21   121   120    1
    22   121   112    1
    23   171   170    1
    24   171   162    1
    25   167   166    1
    26    67    66    1
    27   117   116    1
    28    17    16    1
    29   166   162    1
    30   166   169    1
    31   116   112    1
    32   116   119    1
    33    66    62    1
    34    66    69    1
    35    16    12    1
    36    16    19    1
    37     6     3    1
    38   156   153    1
    39   106   103    1
    40    56    53    1
    41    20     1    1
    42    20    13    1
    43   120   101    1
    44   120   113    1
    45    70    51    1
    46    70    63    1
    47   170   151    1
    48   170   163    1
    49    62    65    1
    50    62    64    1
    51   112   115    1
    52   112   114    1
    53    12    15    1
    54    12    14    1
    55   162   165    1
    56   162   164    1
    57   109   105    1
    58   159   155    1
    59     9     5    1
    60    59    55    1
    61   103   101    1
    62   103   102    1
    63    53    51    1
    64    53    52    1
    65     3     1    1
    66     3     2    1
    67   153   151    1
    68   153   152    1
    69   101   111    1
    70   151   161    1
    71    51    61    1
    72     1    11    1
    73   110   105    1
    74    60    55    1
    75   160   155    1
    76    10     5    1
    77     2     5    1
    78     2     4    1
    79   152   155    1
    80   152   154    1
    81   102   105    1
    82   102   104    1
    83    52    55    1
    84    52    54    1
    85    55    58    1
    86   105   108    1
    87     5     8    1
    88   155   158    1
    89    61    75    1
    90    61    54    2
    91   161   175    1
    92   161   154    2
    93    11    25    1
    94    11     4    2
    95   111   125    1
    96   111   104    2
    97   154   157    1
    98     4     7    1
    99   104   107    1
   100    54    57    1
   101    98    96    1
   102   198   196    1
   103   148   146    1
   104    48    46    1
   105   143   141    1
   106    93    91    1
   107    43    41    1
   108   193   191    1
   109    99    96    1
   110   199   196    1
   111   149   146    1
   112    49    46    1
   113    47    45    1
   114   147   145    1
   115    97    95    1
   116   197   195    1
   117   196   195    1
   118   196   187    1
   119    46    45    1
   120    46    37    1
   121   146   145    1
   122   146   137    1
   123    96    95    1
   124    96    87    1
   125   192   191    1
   126   142   141    1
   127    42    41    1
   128    92    91    1
   129   141   137    1
   130   141   144    1
   131    41    37    1
   132    41    44    1
   133   191   187    1
   134   191   194    1
   135    91    87    1
   136    91    94    1
   137    81    78    1
   138    31    28    1
   139   131   128    1
   140   181   178    1
   141   195   176    1
   142   195   188    1
   143    95    76    1
   144    95    88    1
   145   145   126    1
   146   145   138    1
   147    45    26    1
   148    45    38    1
   149    87    90    1
   150    87    89    1
   151   137   140    1
   152   137   139    1
   153    37    40    1
   154    37    39    1
   155   187   190    1
   156   187   189    1
   157   184   180    1
   158    34    30    1
   159   134   130    1
   160    84    80    1
   161   178   176    1
   162   178   177    1
   163    78    76    1
   164    78    77    1
   165    28    26    1
   166    28    27    1
   167   128   126    1
   168   128   127    1
   169    76    86    1
   170   176   186    1
   171    26    36    1
   172   126   136    1
   173   185   180    1
   174    35    30    1
   175    85    80    1
   176   135   130    1
   177    27    30    1
   178    27    29    1
   179   127   130    1
   180   127   129    1
   181    77    80    1
   182    77    79    1
   183   177   180    1
   184   177   179    1
   185    30    33    1
   186   180   183    1
   187   130   133    1
   188    80    83    1
   189   136   150    1
   190   136   129    2
   191   186   200    1
   192   186   179    2
   193    36    50    1
   194    36    29    2
   195    86   100    1
   196    86    79    2
   197   179   182    1
   198    29    32    1
   199    79    82    1
   200   129   132    1
