@<TRIPOS>MOLECULE
Lattice="31.99887642195921 -1.114529886 0.179136444 -13.034058509607004 29.2250191827707 -0.113036838 -9.26929283793722 -14.132872658546185 26.189218490489594" Properties=species:S:1:pos:R:3 i=71 E=-1301.9381148525 pbc="T T T"
 992 1068 0 0 0
SMALL
GASTEIGER

@<TRIPOS>ATOM
      1 TI         -2.8645    2.2006   11.2566 Ti      1  UNL1        0.0000
      2 TI          7.9539    5.0968    1.8886 Ti      1  UNL1        0.0000
      3 TI          1.2377   -1.7078    9.4182 Ti      1  UNL1        0.0000
      4 TI          2.7434    7.4424    3.6736 Ti      1  UNL1        0.0000
      5 TI          1.7526    9.1115    1.7619 Ti      1  UNL1        0.0000
      6 TI          3.1068   -1.9730   11.3834 Ti      1  UNL1        0.0000
      7 TI         -1.9205    0.4818    9.3508 Ti      1  UNL1        0.0000
      8 TI          5.9741    5.3870    3.7407 Ti      1  UNL1        0.0000
      9 H           3.7320    1.5063    8.6142 H       1  UNL1        0.0000
     10 H          -0.1902   -4.2348    6.4864 H       1  UNL1        0.0000
     11 H           4.8096   10.8696    4.6117 H       1  UNL1        0.0000
     12 H          -2.3720    6.1053   11.0301 H       1  UNL1        0.0000
     13 H           8.8278    1.1869    2.2040 H       1  UNL1        0.0000
     14 H          -6.8298    1.4720   10.8817 H       1  UNL1        0.0000
     15 H          11.3337    7.1084    2.0930 H       1  UNL1        0.0000
     16 H           4.0784   -6.0129   10.9984 H       1  UNL1        0.0000
     17 H          -2.3231    8.5353    2.0865 H       1  UNL1        0.0000
     18 H           4.7015    3.0098    6.8479 H       1  UNL1        0.0000
     19 H           0.0334    3.6940    8.4490 H       1  UNL1        0.0000
     20 H          -3.6512   -1.6853    6.3195 H       1  UNL1        0.0000
     21 H           2.2284    7.4625   -0.1126 H       1  UNL1        0.0000
     22 H           6.0742    4.8614    0.1892 H       1  UNL1        0.0000
     23 H           3.6547   -2.6147    5.8828 H       1  UNL1        0.0000
     24 H           1.0254    9.2791    7.2897 H       1  UNL1        0.0000
     25 H          -6.0570    3.7718    9.0025 H       1  UNL1        0.0000
     26 H          10.7923    3.1182    4.2051 H       1  UNL1        0.0000
     27 H          -3.6136    2.5354    5.6847 H       1  UNL1        0.0000
     28 H          -1.3225   10.9866    4.1178 H       1  UNL1        0.0000
     29 H           2.2232   12.2128    2.6047 H       1  UNL1        0.0000
     30 H           8.7287   -0.8383    3.4122 H       2  UNK2        0.0000
     31 H           4.8370    7.1198    2.3397 H       1  UNL1        0.0000
     32 H           0.1555    0.1431   10.7045 H       1  UNL1        0.0000
     33 H           7.3430   -0.0079    9.7793 H       1  UNL1        0.0000
     34 H           5.8616   -0.4834   10.5286 H       1  UNL1        0.0000
     35 H           7.8311    4.2369    8.6571 H       1  UNL1        0.0000
     36 H           7.2983    4.6440    7.0337 H       1  UNL1        0.0000
     37 H           6.8664   -4.9971    9.5948 H       1  UNL1        0.0000
     38 H           5.5825   -3.9015   10.0527 H       1  UNL1        0.0000
     39 H           1.4131    1.8718    9.3957 H       1  UNL1        0.0000
     40 H           1.0036    5.2015    6.6811 H       1  UNL1        0.0000
     41 H           6.0468    8.8673    3.8412 H       1  UNL1        0.0000
     42 H          -7.7305    8.8767    4.6894 H       3  UNK3        0.0000
     43 C           8.5464    4.3537    4.7480 C.3     1  UNL1        0.0000
     44 C          -3.8263    2.4821    8.4107 C.3     1  UNL1        0.0000
     45 C           3.8221   -2.7227    8.5139 C.3     1  UNL1        0.0000
     46 C           0.8244    9.4305    4.6264 C.3     1  UNL1        0.0000
     47 C           9.4408    3.7527    5.7447 C.ar    1  UNL1        0.0000
     48 C          -4.7558    3.1090    7.4346 C.2     1  UNL1        0.0000
     49 C           4.7645   -3.3349    7.5698 C.2     1  UNL1        0.0000
     50 C          -0.0625   10.0783    5.6271 C.ar    1  UNL1        0.0000
     51 C           9.1540    3.7668    7.1473 C.ar    1  UNL1        0.0000
     52 C          -4.4991    3.0484    6.0491 C.3     1  UNL1        0.0000
     53 C           5.8896   -4.1018    8.0228 C.2     1  UNL1        0.0000
     54 C          -1.1518   10.8601    5.1832 C.ar    1  UNL1        0.0000
     55 C           0.1828    9.8958    6.9834 C.ar    1  UNL1        0.0000
     56 C           4.5260   -3.1912    6.1852 C.3     1  UNL1        0.0000
     57 C          10.6144    3.1145    5.2779 C.ar    1  UNL1        0.0000
     58 C          -5.8944    3.7418    7.9266 C.2     1  UNL1        0.0000
     59 C           2.9089    4.1942    6.6655 C.ar    1  UNL1        0.0000
     60 C           1.8301    2.5200    8.6271 C.ar    1  UNL1        0.0000
     61 C           6.4826    9.5107    4.6038 C.ar    1  UNL1        0.0000
     62 C          -1.8642   -2.8761    6.5051 C.2     1  UNL1        0.0000
     63 C           8.7663    1.2616    0.0620 C.2     1  UNL1        0.0000
     64 C           2.3081   13.0571    0.0845 C.2     1  UNL1        0.0000
     65 C          11.2325    7.0415   -0.0564 C.2     1  UNL1        0.0000
     66 C          -2.1281    8.5800   -0.0702 C.2     1  UNL1        0.0000
     67 C           3.4833    5.0836    5.6271 C.3     1  UNL1        0.0000
     68 C          -1.2611   -1.9855    7.5255 C.2     1  UNL1        0.0000
     69 C           8.6179    2.7202    0.0404 C.2     1  UNL1        0.0000
     70 C           2.2074   11.6206    0.0480 C.2     1  UNL1        0.0000
     71 C           9.9340    6.4186   -0.0133 C.2     1  UNL1        0.0000
     72 C          -0.7199    8.9896   -0.0435 C.2     1  UNL1        0.0000
     73 C           1.5881    4.3908    7.1111 C.ar    1  UNL1        0.0000
     74 C           3.1435    2.3159    8.1854 C.ar    1  UNL1        0.0000
     75 C           5.7856   10.6452    5.0388 C.ar    1  UNL1        0.0000
     76 C          -1.1700   -4.0195    6.0656 C.3     1  UNL1        0.0000
     77 C           8.8317    0.5955    1.2902 C.3     1  UNL1        0.0000
     78 C          -2.3485    6.6952   11.9429 C.ar    1  UNL1        0.0000
     79 C          11.8841    7.3151    1.1787 C.2     1  UNL1        0.0000
     80 C          -7.3927    1.2902   11.7955 C.3     1  UNL1        0.0000
     81 C           7.7424    9.2041    5.1337 C.ar    1  UNL1        0.0000
     82 C          -3.1322   -2.5756    5.9712 C.3     1  UNL1        0.0000
     83 C           3.6842    3.1506    7.2069 C.ar    1  UNL1        0.0000
     84 C           1.0520    3.5536    8.0907 C.ar    1  UNL1        0.0000
     85 C           7.2908    0.2482   11.8069 C.ar    1  UNL1        0.0000
     86 C          -2.8257    8.3513    1.1409 C.3     1  UNL1        0.0000
     87 C           4.1358   -6.5418   11.9458 C.3     1  UNL1        0.0000
     88 C           2.3458   13.8056    1.3135 C.2     1  UNL1        0.0000
     89 N           2.4333   13.2056    2.5472 N.pl3   1  UNL1        0.0000
     90 N           6.7122    0.0729   10.5685 N.pl3   1  UNL1        0.0000
     91 N           8.0310    4.3421    7.6708 N.pl3   1  UNL1        0.0000
     92 N           6.2114   -4.2683    9.3415 N.pl3   1  UNL1        0.0000
     93 O           7.3658    4.7550    5.1127 O.3     1  UNL1        0.0000
     94 O          -3.0449    1.5426    8.0036 O.3     1  UNL1        0.0000
     95 O           4.1936   -2.6069    9.7393 O.3     1  UNL1        0.0000
     96 O           0.7545    9.8517    3.4237 O.3     1  UNL1        0.0000
     97 O           1.5989    8.4749    5.0156 O.3     1  UNL1        0.0000
     98 O           2.6563   -2.3434    8.1004 O.3     1  UNL1        0.0000
     99 O           8.9567    4.4400    3.5357 O.3     1  UNL1        0.0000
    100 O          -3.8801    2.9004    9.6160 O.3     1  UNL1        0.0000
    101 O           6.2783    4.1758    2.5384 O.3     1  UNL1        0.0000
    102 O          -1.3681    2.0383   10.1164 O.3     1  UNL1        0.0000
    103 O           7.2160    6.4623    2.9883 O.3     1  UNL1        0.0000
    104 O          -3.1192    0.3080   10.5881 O.3     1  UNL1        0.0000
    105 O           1.4806   -2.8811   10.6812 O.3     1  UNL1        0.0000
    106 O           3.2668    8.9977    2.9134 O.3     1  UNL1        0.0000
    107 O           2.4489   -0.6231   10.2331 O.3     1  UNL1        0.0000
    108 O           1.5541    7.2423    2.4187 O.3     1  UNL1        0.0000
    109 O           4.6991    4.8876    5.2627 O.3     1  UNL1        0.0000
    110 O          -1.9317   -0.9628    7.9154 O.2     1  UNL1        0.0000
    111 O           3.8504   -3.7584   11.9947 O.2     1  UNL1        0.0000
    112 O           2.1267   10.9266    1.1458 O.2     1  UNL1        0.0000
    113 O           4.6659   -0.9549   11.9882 O.3     1  UNL1        0.0000
    114 O          -0.1345    9.0853    1.1002 O.2     1  UNL1        0.0000
    115 O          -0.0943   -2.2686    7.9779 O.2     1  UNL1        0.0000
    116 O           2.7492    6.0135    5.1389 O.3     1  UNL1        0.0000
    117 O           9.3973    6.1205    1.1339 O.2     1  UNL1        0.0000
    118 O          -4.7589    2.1527   11.9343 O.2     1  UNL1        0.0000
    119 O           8.6079    3.3530    1.1614 O.2     1  UNL1        0.0000
    120 O          -2.4767    3.9362   11.9987 O.3     1  UNL1        0.0000
    121 O           4.4767    6.5730    3.0622 O.3     1  UNL1        0.0000
    122 O          -0.2201   -0.4147    9.9988 O.3     1  UNL1        0.0000
    123 O           6.9175    5.3473    0.1098 O.3     1  UNL1        0.0000
    124 O           2.3584    8.4286   -0.0555 O.3     1  UNL1        0.0000
    125 TI         -7.4992   -4.8658   24.3512 Ti      4  UNL4        0.0000
    126 TI          3.3193   -1.9696   14.9832 Ti      1  UNL1        0.0000
    127 TI         -3.3969   -8.7742   22.5128 Ti      4  UNL4        0.0000
    128 TI         -1.8912    0.3760   16.7682 Ti      1  UNL1        0.0000
    129 TI         -2.8820    2.0451   14.8565 Ti      1  UNL1        0.0000
    130 TI         -1.5278   -9.0395   24.4780 Ti      4  UNL4        0.0000
    131 TI         -6.5551   -6.5846   22.4454 Ti      4  UNL4        0.0000
    132 TI          1.3395   -1.6794   16.8353 Ti      1  UNL1        0.0000
    133 H          -0.9026   -5.5601   21.7088 H       1  UNL1        0.0000
    134 H          -4.8249  -11.3012   19.5810 H       4  UNL4        0.0000
    135 H           0.1749    3.8032   17.7063 H       1  UNL1        0.0000
    136 H          -7.0066   -0.9612   24.1247 H       1  UNL1        0.0000
    137 H           4.1932   -5.8796   15.2986 H       1  UNL1        0.0000
    138 H         -11.4644   -5.5945   23.9763 H       2  UNK2        0.0000
    139 H           6.6991    0.0419   15.1876 H       1  UNL1        0.0000
    140 H          -0.5562  -13.0793   24.0930 H       4  UNL4        0.0000
    141 H          -6.9578    1.4688   15.1811 H       1  UNL1        0.0000
    142 H           0.0668   -4.0567   19.9425 H       1  UNL1        0.0000
    143 H          -4.6013   -3.3724   21.5436 H       1  UNL1        0.0000
    144 H          -8.2859   -8.7518   19.4141 H       4  UNL4        0.0000
    145 H          -2.4062    0.3961   12.9820 H       1  UNL1        0.0000
    146 H           1.4396   -2.2050   13.2838 H       1  UNL1        0.0000
    147 H          -0.9800   -9.6812   18.9774 H       4  UNL4        0.0000
    148 H          -3.6093    2.2126   20.3844 H       1  UNL1        0.0000
    149 H         -10.6916   -3.2946   22.0971 H       4  UNL4        0.0000
    150 H           6.1577   -3.9482   17.2997 H       1  UNL1        0.0000
    151 H          -8.2482   -4.5310   18.7793 H       4  UNL4        0.0000
    152 H          -5.9571    3.9201   17.2125 H       1  UNL1        0.0000
    153 H          -2.4114    5.1463   15.6993 H       1  UNL1        0.0000
    154 H           4.0941   -7.9047   16.5068 H       5  UNK5        0.0000
    155 H           0.2024    0.0534   15.4344 H       1  UNL1        0.0000
    156 H          -4.4792   -6.9233   23.7991 H       4  UNL4        0.0000
    157 H           2.7083   -7.0743   22.8739 H       3  UNK3        0.0000
    158 H           1.2270   -7.5498   23.6232 H       3  UNK3        0.0000
    159 H           3.1964   -2.8296   21.7517 H       1  UNL1        0.0000
    160 H           2.6637   -2.4224   20.1283 H       1  UNL1        0.0000
    161 H           2.2318  -12.0635   22.6894 H       4  UNL4        0.0000
    162 H           0.9479  -10.9680   23.1473 H       4  UNL4        0.0000
    163 H          -3.2216   -5.1946   22.4903 H       1  UNL1        0.0000
    164 H          -3.6310   -1.8650   19.7757 H       1  UNL1        0.0000
    165 H           1.4122    1.8008   16.9358 H       1  UNL1        0.0000
    166 H         -12.3651    1.8103   17.7841 H       6  UNK6        0.0000
    167 C           3.9117   -2.7128   17.8426 C.3     1  UNL1        0.0000
    168 C          -8.4609   -4.5843   21.5053 C.3     4  UNL4        0.0000
    169 C          -0.8126   -9.7891   21.6085 C.3     4  UNL4        0.0000
    170 C          -3.8103    2.3641   17.7210 C.3     1  UNL1        0.0000
    171 C           4.8062   -3.3138   18.8393 C.ar    1  UNL1        0.0000
    172 C          -9.3904   -3.9574   20.5292 C.2     4  UNL4        0.0000
    173 C           0.1298  -10.4014   20.6644 C.2     4  UNL4        0.0000
    174 C          -4.6971    3.0119   18.7217 C.ar    1  UNL1        0.0000
    175 C           4.5193   -3.2996   20.2419 C.ar    1  UNL1        0.0000
    176 C          -9.1338   -4.0181   19.1437 C.3     4  UNL4        0.0000
    177 C           1.2549  -11.1682   21.1174 C.2     4  UNL4        0.0000
    178 C          -5.7865    3.7937   18.2778 C.ar    1  UNL1        0.0000
    179 C          -4.4518    2.8294   20.0780 C.ar    1  UNL1        0.0000
    180 C          -0.1086  -10.2576   19.2798 C.3     4  UNL4        0.0000
    181 C           5.9798   -3.9520   18.3726 C.ar    1  UNL1        0.0000
    182 C         -10.5290   -3.3247   21.0212 C.2     4  UNL4        0.0000
    183 C          -1.7257   -2.8722   19.7602 C.ar    1  UNL1        0.0000
    184 C          -2.8046   -4.5464   21.7217 C.ar    1  UNL1        0.0000
    185 C           1.8479    2.4443   17.6984 C.ar    1  UNL1        0.0000
    186 C          -6.4989   -9.9426   19.5997 C.2     4  UNL4        0.0000
    187 C           4.1317   -5.8048   13.1566 C.2     1  UNL1        0.0000
    188 C          -2.3265    5.9907   13.1791 C.ar    1  UNL1        0.0000
    189 C           6.5978   -0.0249   13.0382 C.ar    1  UNL1        0.0000
    190 C          -6.7627    1.5136   13.0244 C.2     1  UNL1        0.0000
    191 C          -1.1513   -1.9828   18.7218 C.3     1  UNL1        0.0000
    192 C          -5.8957   -9.0519   20.6201 C.2     4  UNL4        0.0000
    193 C           3.9832   -4.3462   13.1350 C.2     1  UNL1        0.0000
    194 C          -2.4272    4.5542   13.1426 C.3     1  UNL1        0.0000
    195 C           5.2993   -0.6479   13.0813 C.3     1  UNL1        0.0000
    196 C          -5.3545    1.9232   13.0511 C.2     1  UNL1        0.0000
    197 C          -3.0466   -2.6756   20.2057 C.ar    1  UNL1        0.0000
    198 C          -1.4912   -4.7505   21.2800 C.ar    1  UNL1        0.0000
    199 C           1.1510    3.5788   18.1335 C.ar    1  UNL1        0.0000
    200 C          -5.8047  -11.0859   19.1602 C.3     4  UNL4        0.0000
    201 C           4.1970   -6.4709   14.3848 C.3     1  UNL1        0.0000
    202 C          -6.9831   -0.3712   25.0375 C.2     1  UNL1        0.0000
    203 C           7.2494    0.2487   14.2733 C.ar    1  UNL1        0.0000
    204 C         -12.0274   -5.7762   24.8901 C.3     7  UNL7        0.0000
    205 C           3.1078    2.1376   18.2283 C.ar    1  UNL1        0.0000
    206 C          -7.7669   -9.6421   19.0658 C.3     4  UNL4        0.0000
    207 C          -0.9504   -3.9159   20.3015 C.ar    1  UNL1        0.0000
    208 C          -3.5826   -3.5128   21.1853 C.ar    1  UNL1        0.0000
    209 C           2.6562   -6.8182   24.9015 C.2     3  UNK3        0.0000
    210 C          -7.4603    1.2849   14.2355 C.3     1  UNL1        0.0000
    211 C          -0.4989  -13.6082   25.0404 C.3     8  UNL8        0.0000
    212 C          -2.2889    6.7392   14.4081 C.ar    1  UNL1        0.0000
    213 N          -2.2013    6.1391   15.6418 N.pl3   1  UNL1        0.0000
    214 N           2.0775   -6.9936   23.6631 N.pl3   3  UNK3        0.0000
    215 N           3.3964   -2.7244   20.7654 N.pl3   1  UNL1        0.0000
    216 N           1.5767  -11.3347   22.4361 N.pl3   4  UNL4        0.0000
    217 O           2.7312   -2.3114   18.2073 O.3     1  UNL1        0.0000
    218 O          -7.6796   -5.5238   21.0982 O.3     4  UNL4        0.0000
    219 O          -0.4410   -9.6734   22.8339 O.3     4  UNL4        0.0000
    220 O          -3.8801    2.7853   16.5183 O.3     1  UNL1        0.0000
    221 O          -3.0358    1.4085   18.1102 O.3     1  UNL1        0.0000
    222 O          -1.9783   -9.4099   21.1950 O.3     4  UNL4        0.0000
    223 O           4.3220   -2.6264   16.6303 O.3     1  UNL1        0.0000
    224 O          -8.5147   -4.1660   22.7106 O.3     4  UNL4        0.0000
    225 O           1.6436   -2.8906   15.6330 O.3     1  UNL1        0.0000
    226 O          -6.0027   -5.0282   23.2110 O.3     4  UNL4        0.0000
    227 O           2.5814   -0.6041   16.0829 O.3     1  UNL1        0.0000
    228 O          -7.7538   -6.7584   23.6827 O.3     4  UNL4        0.0000
    229 O          -3.1540   -9.9476   23.7758 O.3     4  UNL4        0.0000
    230 O          -1.3678    1.9313   16.0080 O.3     1  UNL1        0.0000
    231 O          -2.1857   -7.6895   23.3277 O.3     4  UNL4        0.0000
    232 O          -3.0805    0.1759   15.5133 O.3     1  UNL1        0.0000
    233 O           0.0644   -2.1789   18.3574 O.3     1  UNL1        0.0000
    234 O          -6.5663   -8.0293   21.0100 O.2     4  UNL4        0.0000
    235 O          -0.7843  -10.8249   25.0893 O.3     4  UNL4        0.0000
    236 O          -2.5079    3.8602   14.2404 O.3     1  UNL1        0.0000
    237 O           0.0312   -8.0214   25.0828 O.3     4  UNL4        0.0000
    238 O          -4.7691    2.0189   14.1948 O.2     1  UNL1        0.0000
    239 O          -4.7290   -9.3350   21.0725 O.2     4  UNL4        0.0000
    240 O          -1.8854   -1.0529   18.2335 O.3     1  UNL1        0.0000
    241 O           4.7626   -0.9459   14.2285 O.3     1  UNL1        0.0000
    242 O          -9.3935   -4.9137   25.0289 O.3     4  UNL4        0.0000
    243 O           3.9732   -3.7134   14.2560 O.2     1  UNL1        0.0000
    244 O          -7.1113   -3.1302   25.0933 O.3     4  UNL4        0.0000
    245 O          -0.1579   -0.4935   16.1568 O.3     1  UNL1        0.0000
    246 O          -4.8547   -7.4811   23.0934 O.3     4  UNL4        0.0000
    247 O           2.2828   -1.7192   13.2044 O.3     1  UNL1        0.0000
    248 O          -2.2762    1.3622   13.0391 O.3     1  UNL1        0.0000
    249 TI         -9.3816   16.8132   11.2001 Ti      1  UNL1        0.0000
    250 TI          1.4369   19.7093    1.8321 Ti      1  UNL1        0.0000
    251 TI         -5.2793   12.9048    9.3617 Ti      1  UNL1        0.0000
    252 TI         -3.7736   22.0550    3.6171 Ti      1  UNL1        0.0000
    253 TI         -4.7644   23.7240    1.7054 Ti      1  UNL1        0.0000
    254 TI         -3.4102   12.6395   11.3268 Ti      1  UNL1        0.0000
    255 TI         -8.4375   15.0943    9.2943 Ti      1  UNL1        0.0000
    256 TI         -0.5429   19.9995    3.6841 Ti      1  UNL1        0.0000
    257 H          -2.7850   16.1188    8.5576 H       1  UNL1        0.0000
    258 H          -6.7073   10.3778    6.4299 H       1  UNL1        0.0000
    259 H          -1.7075   25.4821    4.5552 H       5  UNK5        0.0000
    260 H          -8.8890   20.7178   10.9736 H       1  UNL1        0.0000
    261 H           2.3108   15.7994    2.1475 H       1  UNL1        0.0000
    262 H         -13.3468   16.0845   10.8252 H       1  UNL1        0.0000
    263 H           4.8167   21.7209    2.0365 H       1  UNL1        0.0000
    264 H          -2.4386    8.5996   10.9419 H       1  UNL1        0.0000
    265 H          -8.8402   23.1478    2.0300 H       1  UNL1        0.0000
    266 H          -1.8155   17.6223    6.7914 H       1  UNL1        0.0000
    267 H          -6.4837   18.3065    8.3925 H       1  UNL1        0.0000
    268 H         -10.1682   12.9272    6.2630 H       1  UNL1        0.0000
    269 H          -4.2886   22.0751   -0.1692 H       1  UNL1        0.0000
    270 H          -0.4428   19.4740    0.1327 H       1  UNL1        0.0000
    271 H          -2.8623   11.9978    5.8263 H       1  UNL1        0.0000
    272 H          -5.4916   23.8916    7.2332 H       1  UNL1        0.0000
    273 H         -12.5740   18.3843    8.9460 H       1  UNL1        0.0000
    274 H           4.2753   17.7308    4.1485 H       1  UNL1        0.0000
    275 H         -10.1306   17.1479    5.6282 H       1  UNL1        0.0000
    276 H          -7.8395   25.5991    4.0613 H       1  UNL1        0.0000
    277 H          -4.2938   26.8253    2.5482 H       1  UNL1        0.0000
    278 H           2.2117   13.7742    3.3557 H       1  UNL1        0.0000
    279 H          -1.6800   21.7324    2.2832 H       1  UNL1        0.0000
    280 H          -6.3616   14.7557   10.6479 H       1  UNL1        0.0000
    281 H           0.8260   14.6047    9.7228 H       1  UNL1        0.0000
    282 H          -0.6554   14.1291   10.4720 H       1  UNL1        0.0000
    283 H           1.3140   18.8494    8.6005 H       1  UNL1        0.0000
    284 H           0.7813   19.2565    6.9772 H       1  UNL1        0.0000
    285 H           0.3494    9.6154    9.5383 H       1  UNL1        0.0000
    286 H          -0.9345   10.7110    9.9961 H       1  UNL1        0.0000
    287 H          -5.1040   16.4844    9.3391 H       1  UNL1        0.0000
    288 H          -5.5134   19.8140    6.6246 H       1  UNL1        0.0000
    289 H          -0.4702   23.4798    3.7847 H       5  UNK5        0.0000
    290 H         -14.2475   23.4892    4.6329 H       9  UNK9        0.0000
    291 C           2.0294   18.9662    4.6915 C.3     1  UNL1        0.0000
    292 C         -10.3433   17.0946    8.3542 C.3     1  UNL1        0.0000
    293 C          -2.6949   11.8898    8.4574 C.3     1  UNL1        0.0000
    294 C          -5.6927   24.0430    4.5699 C.3     1  UNL1        0.0000
    295 C           2.9238   18.3652    5.6882 C.ar    1  UNL1        0.0000
    296 C         -11.2728   17.7215    7.3781 C.2     1  UNL1        0.0000
    297 C          -1.7526   11.2776    7.5133 C.ar    1  UNL1        0.0000
    298 C          -6.5795   24.6908    5.5706 C.2     1  UNL1        0.0000
    299 C           2.6369   18.3793    7.0908 C.ar    1  UNL1        0.0000
    300 C         -11.0162   17.6609    5.9926 C.3     1  UNL1        0.0000
    301 C          -0.6275   10.5107    7.9662 C.ar    1  UNL1        0.0000
    302 C          -7.6689   25.4726    5.1267 C.3     1  UNL1        0.0000
    303 C          -6.3342   24.5083    6.9268 C.2     1  UNL1        0.0000
    304 C          -1.9910   11.4213    6.1287 C.ar    1  UNL1        0.0000
    305 C           4.0974   17.7270    5.2214 C.ar    1  UNL1        0.0000
    306 C         -12.4114   18.3543    7.8701 C.2     1  UNL1        0.0000
    307 C          -3.6081   18.8067    6.6090 C.ar    1  UNL1        0.0000
    308 C          -4.6870   17.1325    8.5706 C.ar    1  UNL1        0.0000
    309 C          -0.0345   24.1233    4.5473 C.2     5  UNK5        0.0000
    310 C          -8.3813   11.7364    6.4486 C.2     1  UNL1        0.0000
    311 C           2.2493   15.8741    0.0054 C.2     1  UNL1        0.0000
    312 C          -4.2089   27.6696    0.0280 C.2     1  UNL1        0.0000
    313 C           4.7155   21.6540   -0.1129 C.2     1  UNL1        0.0000
    314 C          -8.6451   23.1925   -0.1268 C.2     1  UNL1        0.0000
    315 C          -3.0337   19.6961    5.5706 C.3     1  UNL1        0.0000
    316 C          -7.7781   12.6270    7.4690 C.2     1  UNL1        0.0000
    317 C           2.1009   17.3327   -0.0161 C.2     1  UNL1        0.0000
    318 C          -4.3096   26.2331   -0.0085 C.2     1  UNL1        0.0000
    319 C           3.4169   21.0311   -0.0699 C.2     1  UNL1        0.0000
    320 C          -7.2369   23.6021   -0.1000 C.2     1  UNL1        0.0000
    321 C          -4.9289   19.0033    7.0546 C.ar    1  UNL1        0.0000
    322 C          -3.3735   16.9284    8.1289 C.ar    1  UNL1        0.0000
    323 C          -0.7314   25.2577    4.9823 C.3     5  UNK5        0.0000
    324 C          -7.6871   10.5930    6.0091 C.3     1  UNL1        0.0000
    325 C           2.3146   15.2080    1.2337 C.2     1  UNL1        0.0000
    326 C          -8.8655   21.3078   11.8863 C.3     1  UNL1        0.0000
    327 C           5.3670   21.9277    1.1222 C.2     1  UNL1        0.0000
    328 C         -13.9097   15.9027   11.7390 C.3     1  UNL1        0.0000
    329 C           1.2254   23.8166    5.0772 C.2     5  UNK5        0.0000
    330 C          -9.6493   12.0369    5.9146 C.3     1  UNL1        0.0000
    331 C          -2.8328   17.7631    7.1503 C.ar    1  UNL1        0.0000
    332 C          -5.4650   18.1662    8.0341 C.ar    1  UNL1        0.0000
    333 C           0.7738   14.8608   11.7504 C.ar    1  UNL1        0.0000
    334 C          -9.3427   22.9639    1.0844 C.3     1  UNL1        0.0000
    335 C          -2.3813    8.0708   11.8893 C.ar    1  UNL1        0.0000
    336 C          -4.1712   28.4181    1.2570 C.3     1  UNL1        0.0000
    337 N          -4.0837   27.8181    2.4907 N.3     1  UNL1        0.0000
    338 N           0.1951   14.6854   10.5119 N.pl3   1  UNL1        0.0000
    339 N           1.5140   18.9546    7.6143 N.pl3   1  UNL1        0.0000
    340 N          -0.3057   10.3443    9.2850 N.pl3   1  UNL1        0.0000
    341 O           0.8488   19.3675    5.0561 O.3     1  UNL1        0.0000
    342 O          -9.5620   16.1551    7.9470 O.3     1  UNL1        0.0000
    343 O          -2.3234   12.0056    9.6828 O.3     1  UNL1        0.0000
    344 O          -5.7625   24.4642    3.3672 O.3     1  UNL1        0.0000
    345 O          -4.9182   23.0874    4.9590 O.3     1  UNL1        0.0000
    346 O          -3.8607   12.2691    8.0439 O.3     1  UNL1        0.0000
    347 O           2.4396   19.0525    3.4792 O.3     1  UNL1        0.0000
    348 O         -10.3971   17.5129    9.5595 O.3     1  UNL1        0.0000
    349 O          -0.2388   18.7883    2.4819 O.3     1  UNL1        0.0000
    350 O          -7.8851   16.6508   10.0598 O.3     1  UNL1        0.0000
    351 O           0.6990   21.0749    2.9318 O.3     1  UNL1        0.0000
    352 O          -9.6362   14.9205   10.5316 O.3     1  UNL1        0.0000
    353 O          -5.0364   11.7314   10.6247 O.3     1  UNL1        0.0000
    354 O          -3.2502   23.6102    2.8569 O.3     1  UNL1        0.0000
    355 O          -4.0681   13.9894   10.1766 O.3     1  UNL1        0.0000
    356 O          -4.9629   21.8548    2.3621 O.3     1  UNL1        0.0000
    357 O          -1.8180   19.5001    5.2062 O.3     1  UNL1        0.0000
    358 O          -8.4487   13.6497    7.8588 O.2     1  UNL1        0.0000
    359 O          -2.6667   10.8541   11.9382 O.3     1  UNL1        0.0000
    360 O          -4.3903   25.5391    1.0893 O.2     1  UNL1        0.0000
    361 O          -1.8512   13.6576   11.9316 O.3     1  UNL1        0.0000
    362 O          -6.6515   23.6979    1.0437 O.2     1  UNL1        0.0000
    363 O          -6.6114   12.3439    7.9213 O.2     1  UNL1        0.0000
    364 O          -3.7678   20.6260    5.0824 O.3     1  UNL1        0.0000
    365 O           2.8803   20.7330    1.0774 O.2     1  UNL1        0.0000
    366 O         -11.2759   16.7653   11.8778 O.2     1  UNL1        0.0000
    367 O           2.0908   17.9655    1.1049 O.2     1  UNL1        0.0000
    368 O          -8.9937   18.5487   11.9421 O.2     1  UNL1        0.0000
    369 O          -2.0403   21.1855    3.0057 O.3     1  UNL1        0.0000
    370 O          -6.7371   14.1978    9.9423 O.3     1  UNL1        0.0000
    371 O           0.4004   19.9598    0.0533 O.3     1  UNL1        0.0000
    372 O          -4.1586   23.0411   -0.1120 O.3     1  UNL1        0.0000
    373 TI        -14.0162    9.7467   24.2947 Ti      1  UNL1        0.0000
    374 TI         -3.1978   12.6429   14.9267 Ti      1  UNL1        0.0000
    375 TI         -9.9140    5.8383   22.4563 Ti      1  UNL1        0.0000
    376 TI         -8.4082   14.9885   16.7117 Ti      1  UNL1        0.0000
    377 TI         -9.3991   16.6576   14.8000 Ti      1  UNL1        0.0000
    378 TI         -8.0449    5.5730   24.4215 Ti      1  UNL1        0.0000
    379 TI        -13.0721    8.0279   22.3889 Ti      1  UNL1        0.0000
    380 TI         -5.1775   12.9331   16.7787 Ti      1  UNL1        0.0000
    381 H          -7.4197    9.0524   21.6523 H       1  UNL1        0.0000
    382 H         -11.3419    3.3113   19.5245 H       1  UNL1        0.0000
    383 H          -6.3421   18.4157   17.6498 H       6  UNK6        0.0000
    384 H         -13.5236   13.6513   24.0682 H       7  UNL7        0.0000
    385 H          -2.3238    8.7329   15.2421 H       1  UNL1        0.0000
    386 H         -17.9815    9.0180   23.9198 H       8  UNL8        0.0000
    387 H           0.1820   14.6544   15.1311 H       1  UNL1        0.0000
    388 H          -7.0733    1.5332   24.0365 H       1  UNL1        0.0000
    389 H         -13.4748   16.0813   15.1246 H       1  UNL1        0.0000
    390 H          -6.4502   10.5558   19.8860 H       1  UNL1        0.0000
    391 H         -11.1183   11.2401   21.4871 H       1  UNL1        0.0000
    392 H         -14.8029    5.8607   19.3576 H       1  UNL1        0.0000
    393 H          -8.9232   15.0086   12.9255 H       1  UNL1        0.0000
    394 H          -5.0774   12.4075   13.2273 H       1  UNL1        0.0000
    395 H          -7.4970    4.9313   18.9209 H       1  UNL1        0.0000
    396 H         -10.1263   16.8251   20.3278 H       1  UNL1        0.0000
    397 H         -17.2086   11.3179   22.0406 H       1  UNL1        0.0000
    398 H          -0.3593   10.6643   17.2431 H       1  UNL1        0.0000
    399 H         -14.7653   10.0815   18.7228 H       1  UNL1        0.0000
    400 H         -12.4742   18.5326   17.1559 H       1  UNL1        0.0000
    401 H          -8.9284   19.7589   15.6428 H       1  UNL1        0.0000
    402 H          -2.4230    6.7078   16.4503 H       1  UNL1        0.0000
    403 H          -6.3147   14.6659   15.3778 H       1  UNL1        0.0000
    404 H         -10.9962    7.6892   23.7425 H       1  UNL1        0.0000
    405 H          -3.8087    7.5382   22.8174 H       9  UNK9        0.0000
    406 H          -5.2901    7.0627   23.5667 H       9  UNK9        0.0000
    407 H          -3.3206   11.7829   21.6952 H       1  UNL1        0.0000
    408 H          -3.8534   12.1901   20.0718 H       1  UNL1        0.0000
    409 H          -4.2852    2.5490   22.6329 H       1  UNL1        0.0000
    410 H          -5.5691    3.6445   23.0908 H       1  UNL1        0.0000
    411 H          -9.7386    9.4179   22.4338 H       1  UNL1        0.0000
    412 H         -10.1480   12.7475   19.7192 H       1  UNL1        0.0000
    413 H          -5.1049   16.4133   16.8793 H       6  UNK6        0.0000
    414 H         -18.8822   16.4228   17.7275 H      10  UNK10       0.0000
    415 C          -2.6053   11.8997   17.7861 C.3     1  UNL1        0.0000
    416 C         -14.9780   10.0282   21.4488 C.3     1  UNL1        0.0000
    417 C          -7.3296    4.8234   21.5520 C.3     1  UNL1        0.0000
    418 C         -10.3273   16.9766   17.6645 C.3     1  UNL1        0.0000
    419 C          -1.7109   11.2987   18.7828 C.ar    1  UNL1        0.0000
    420 C         -15.9075   10.6551   20.4727 C.2     1  UNL1        0.0000
    421 C          -6.3872    4.2111   20.6079 C.ar    1  UNL1        0.0000
    422 C         -11.2141   17.6244   18.6652 C.2     1  UNL1        0.0000
    423 C          -1.9977   11.3129   20.1854 C.ar    1  UNL1        0.0000
    424 C         -15.6508   10.5944   19.0872 C.3     1  UNL1        0.0000
    425 C          -5.2621    3.4443   21.0609 C.ar    1  UNL1        0.0000
    426 C         -12.3035   18.4062   18.2213 C.3     1  UNL1        0.0000
    427 C         -10.9689   17.4419   20.0214 C.2     1  UNL1        0.0000
    428 C          -6.6257    4.3549   19.2233 C.ar    1  UNL1        0.0000
    429 C          -0.5373   10.6605   18.3160 C.ar    1  UNL1        0.0000
    430 C         -17.0461   11.2878   20.9647 C.2     1  UNL1        0.0000
    431 C          -8.2427   11.7403   19.7036 C.ar    1  UNL1        0.0000
    432 C          -9.3216   10.0661   21.6652 C.ar    1  UNL1        0.0000
    433 C          -4.6691   17.0568   17.6419 C.2     6  UNK6        0.0000
    434 C         -13.0159    4.6699   19.5432 C.2     1  UNL1        0.0000
    435 C          -2.3853    8.8077   13.1001 C.ar    1  UNL1        0.0000
    436 C          -8.8435   20.6032   13.1226 C.2     1  UNL1        0.0000
    437 C           0.0808   14.5876   12.9817 C.ar    1  UNL1        0.0000
    438 C         -13.2797   16.1261   12.9678 C.2     1  UNL1        0.0000
    439 C          -7.6683   12.6297   18.6652 C.3     1  UNL1        0.0000
    440 C         -12.4127    5.5606   20.5636 C.2     1  UNL1        0.0000
    441 C          -2.5338   10.2663   13.0785 C.3     1  UNL1        0.0000
    442 C          -8.9442   19.1667   13.0861 C.2     1  UNL1        0.0000
    443 C          -1.2177   13.9646   13.0248 C.3     1  UNL1        0.0000
    444 C         -11.8715   16.5357   12.9946 C.2     1  UNL1        0.0000
    445 C          -9.5636   11.9369   20.1492 C.ar    1  UNL1        0.0000
    446 C          -8.0082    9.8620   21.2235 C.ar    1  UNL1        0.0000
    447 C          -5.3660   18.1913   18.0769 C.2     6  UNK6        0.0000
    448 C         -12.3217    3.5266   19.1037 C.3     1  UNL1        0.0000
    449 C          -2.3200    8.1416   14.3283 C.ar    1  UNL1        0.0000
    450 C         -13.5002   14.2413   24.9810 C.3    11  UNL11       0.0000
    451 C           0.7324   14.8612   14.2168 C.ar    1  UNL1        0.0000
    452 C         -18.5444    8.8363   24.8336 C.3    12  UNL12       0.0000
    453 C          -3.4093   16.7501   18.1718 C.3     6  UNK6        0.0000
    454 C         -14.2839    4.9704   19.0092 C.3     1  UNL1        0.0000
    455 C          -7.4675   10.6966   20.2449 C.ar    1  UNL1        0.0000
    456 C         -10.0997   11.0997   21.1287 C.ar    1  UNL1        0.0000
    457 C          -3.8609    7.7943   24.8450 C.2     9  UNK9        0.0000
    458 C         -13.9774   15.8974   14.1790 C.3     1  UNL1        0.0000
    459 C          -7.0159    1.0043   24.9839 C.2     1  UNL1        0.0000
    460 C          -8.8059   21.3517   14.3516 C.3     1  UNL1        0.0000
    461 N          -8.7184   20.7516   15.5853 N.3     1  UNL1        0.0000
    462 N          -4.4395    7.6190   23.6065 N.pl3   9  UNK9        0.0000
    463 N          -3.1207   11.8881   20.7089 N.pl3   1  UNL1        0.0000
    464 N          -4.9403    3.2778   22.3796 N.pl3   1  UNL1        0.0000
    465 O          -3.7859   12.3011   18.1507 O.3     1  UNL1        0.0000
    466 O         -14.1966    9.0887   21.0416 O.3     1  UNL1        0.0000
    467 O          -6.9581    4.9391   22.7774 O.3     1  UNL1        0.0000
    468 O         -10.3971   17.3978   16.4618 O.3     1  UNL1        0.0000
    469 O          -9.5528   16.0210   18.0537 O.3     1  UNL1        0.0000
    470 O          -8.4953    5.2026   21.1385 O.3     1  UNL1        0.0000
    471 O          -2.1950   11.9861   16.5738 O.3     1  UNL1        0.0000
    472 O         -15.0318   10.4465   22.6541 O.3     1  UNL1        0.0000
    473 O          -4.8734   11.7219   15.5765 O.3     1  UNL1        0.0000
    474 O         -12.5198    9.5844   23.1544 O.3     1  UNL1        0.0000
    475 O          -3.9357   14.0084   16.0264 O.3     1  UNL1        0.0000
    476 O         -14.2708    7.8541   23.6262 O.3     1  UNL1        0.0000
    477 O          -9.6711    4.6649   23.7193 O.3     1  UNL1        0.0000
    478 O          -7.8848   16.5438   15.9515 O.3     1  UNL1        0.0000
    479 O          -8.7028    6.9230   23.2712 O.3     1  UNL1        0.0000
    480 O          -9.5976   14.7884   15.4567 O.3     1  UNL1        0.0000
    481 O          -6.4526   12.4336   18.3008 O.3     1  UNL1        0.0000
    482 O         -13.0834    6.5832   20.9535 O.2     1  UNL1        0.0000
    483 O          -7.3013    3.7876   25.0328 O.3     1  UNL1        0.0000
    484 O          -9.0250   18.4727   14.1839 O.2     1  UNL1        0.0000
    485 O          -6.4858    6.5911   25.0262 O.3     1  UNL1        0.0000
    486 O         -11.2861   16.6314   14.1383 O.2     1  UNL1        0.0000
    487 O         -11.2460    5.2775   21.0160 O.2     1  UNL1        0.0000
    488 O          -8.4025   13.5596   18.1770 O.3     1  UNL1        0.0000
    489 O          -1.7544   13.6666   14.1720 O.3     1  UNL1        0.0000
    490 O         -15.9106    9.6988   24.9724 O.3     1  UNL1        0.0000
    491 O          -2.5438   10.8991   14.1995 O.3     1  UNL1        0.0000
    492 O         -13.6284   11.4823   25.0367 O.3     1  UNL1        0.0000
    493 O          -6.6749   14.1191   16.1003 O.3     1  UNL1        0.0000
    494 O         -11.3717    7.1314   23.0369 O.3     1  UNL1        0.0000
    495 O          -4.2342   12.8933   13.1479 O.3     1  UNL1        0.0000
    496 O          -8.7932   15.9747   12.9826 O.3     1  UNL1        0.0000
    497 TI         13.1349    1.6434   11.3462 Ti      1  UNL1        0.0000
    498 TI         23.9533    4.5395    1.9781 Ti      1  UNL1        0.0000
    499 TI         17.2371   -2.2650    9.5078 Ti      1  UNL1        0.0000
    500 TI         18.7429    6.8852    3.7632 Ti      1  UNL1        0.0000
    501 TI         17.7521    8.5543    1.8514 Ti      1  UNL1        0.0000
    502 TI         19.1063   -2.5303   11.4729 Ti      1  UNL1        0.0000
    503 TI         14.0790   -0.0755    9.4403 Ti      1  UNL1        0.0000
    504 TI         21.9736    4.8297    3.8302 Ti      1  UNL1        0.0000
    505 H          19.7314    0.9491    8.7037 H       1  UNL1        0.0000
    506 H          15.8092   -4.7920    6.5760 H       1  UNL1        0.0000
    507 H          20.8090   10.3124    4.7013 H      10  UNK10       0.0000
    508 H          13.6275    5.5480   11.1196 H       1  UNL1        0.0000
    509 H          24.8273    0.6296    2.2936 H       1  UNL1        0.0000
    510 H           9.1696    0.9147   10.9713 H       1  UNL1        0.0000
    511 H          27.3332    6.5511    2.1826 H       1  UNL1        0.0000
    512 H          20.0778   -6.5702   11.0880 H       1  UNL1        0.0000
    513 H          13.6763    7.9780    2.1761 H       1  UNL1        0.0000
    514 H          20.7009    2.4525    6.9374 H       1  UNL1        0.0000
    515 H          16.0328    3.1367    8.5386 H       1  UNL1        0.0000
    516 H          12.3482   -2.2426    6.4091 H       1  UNL1        0.0000
    517 H          18.2279    6.9053   -0.0231 H       1  UNL1        0.0000
    518 H          22.0737    4.3042    0.2788 H       1  UNL1        0.0000
    519 H          19.6541   -3.1720    5.9724 H       1  UNL1        0.0000
    520 H          17.0248    8.7218    7.3793 H       1  UNL1        0.0000
    521 H           9.9425    3.2145    9.0921 H       1  UNL1        0.0000
    522 H          26.7918    2.5610    4.2946 H       1  UNL1        0.0000
    523 H          12.3859    1.9782    5.7743 H       1  UNL1        0.0000
    524 H          14.6769   10.4293    4.2074 H       1  UNL1        0.0000
    525 H          18.2227   11.6555    2.6943 H       1  UNL1        0.0000
    526 H          24.7281   -1.3955    3.5017 H      13  UNK13       0.0000
    527 H          20.8365    6.5626    2.4293 H       1  UNL1        0.0000
    528 H          16.1549   -0.4141   10.7940 H       1  UNL1        0.0000
    529 H          23.3424   -0.5651    9.8688 H       1  UNL1        0.0000
    530 H          21.8611   -1.0406   10.6181 H       1  UNL1        0.0000
    531 H          23.8305    3.6796    8.7466 H       1  UNL1        0.0000
    532 H          23.2977    4.0867    7.1232 H       1  UNL1        0.0000
    533 H          22.8659   -5.5544    9.6844 H       1  UNL1        0.0000
    534 H          21.5820   -4.4588   10.1422 H       1  UNL1        0.0000
    535 H          17.4125    1.3146    9.4852 H       1  UNL1        0.0000
    536 H          17.0031    4.6442    6.7707 H       1  UNL1        0.0000
    537 H          22.0463    8.3100    3.9308 H      10  UNK10       0.0000
    538 H           8.2689    8.3194    4.7790 H       1  UNL1        0.0000
    539 C          24.5458    3.7964    4.8376 C.2     1  UNL1        0.0000
    540 C          12.1731    1.9249    8.5002 C.3     1  UNL1        0.0000
    541 C          19.8215   -3.2800    8.6035 C.3     1  UNL1        0.0000
    542 C          16.8238    8.8733    4.7160 C.3     1  UNL1        0.0000
    543 C          25.4402    3.1954    5.8343 C.2     1  UNL1        0.0000
    544 C          11.2436    2.5517    7.5242 C.ar    1  UNL1        0.0000
    545 C          20.7639   -3.8922    7.6594 C.2     1  UNL1        0.0000
    546 C          15.9370    9.5210    5.7167 C.ar    1  UNL1        0.0000
    547 C          25.1534    3.2095    7.2369 C.3     1  UNL1        0.0000
    548 C          11.5003    2.4911    6.1387 C.ar    1  UNL1        0.0000
    549 C          21.8890   -4.6590    8.1123 C.2     1  UNL1        0.0000
    550 C          14.8476   10.3028    5.2727 C.ar    1  UNL1        0.0000
    551 C          16.1822    9.3385    7.0729 C.ar    1  UNL1        0.0000
    552 C          20.5255   -3.7484    6.2747 C.3     1  UNL1        0.0000
    553 C          26.6138    2.5572    5.3675 C.3     1  UNL1        0.0000
    554 C          10.1050    3.1845    8.0161 C.ar    1  UNL1        0.0000
    555 C          18.9084    3.6370    6.7551 C.ar    1  UNL1        0.0000
    556 C          17.8295    1.9628    8.7167 C.ar    1  UNL1        0.0000
    557 C          22.4820    8.9535    4.6934 C.2    10  UNK10       0.0000
    558 C          14.1352   -3.4334    6.5947 C.2     1  UNL1        0.0000
    559 C          24.7658    0.7043    0.1515 C.2     1  UNL1        0.0000
    560 C          18.3076   12.4998    0.1740 C.2     1  UNL1        0.0000
    561 C          27.2319    6.4843    0.0331 C.2     1  UNL1        0.0000
    562 C          13.8714    8.0227    0.0193 C.2     1  UNL1        0.0000
    563 C          19.4828    4.5263    5.7167 C.3     1  UNL1        0.0000
    564 C          14.7384   -2.5428    7.6150 C.2     1  UNL1        0.0000
    565 C          24.6173    2.1630    0.1300 C.2     1  UNL1        0.0000
    566 C          18.2069   11.0634    0.1375 C.2     1  UNL1        0.0000
    567 C          25.9334    5.8613    0.0762 C.2     1  UNL1        0.0000
    568 C          15.2796    8.4323    0.0461 C.2     1  UNL1        0.0000
    569 C          17.5875    3.8335    7.2006 C.ar    1  UNL1        0.0000
    570 C          19.1429    1.7586    8.2750 C.ar    1  UNL1        0.0000
    571 C          21.7851   10.0880    5.1284 C.2    10  UNK10       0.0000
    572 C          14.8294   -4.5767    6.1552 C.3     1  UNL1        0.0000
    573 C          24.8311    0.0383    1.3798 C.3     1  UNL1        0.0000
    574 C          13.6509    6.1380   12.0324 C.ar    1  UNL1        0.0000
    575 C          27.8835    6.7579    1.2682 C.3     1  UNL1        0.0000
    576 C           8.6067    0.7329   11.8851 C.ar    1  UNL1        0.0000
    577 C          23.7419    8.6468    5.2232 C.3    10  UNK10       0.0000
    578 C          12.8672   -3.1329    6.0607 C.3     1  UNL1        0.0000
    579 C          19.6837    2.5933    7.2964 C.ar    1  UNL1        0.0000
    580 C          17.0514    2.9964    8.1802 C.ar    1  UNL1        0.0000
    581 C          23.2903   -0.3090   11.8965 C.3     1  UNL1        0.0000
    582 C          13.1738    7.7941    1.2305 C.2     1  UNL1        0.0000
    583 C          20.1352   -7.0990   12.0354 C.3     1  UNL1        0.0000
    584 C          18.3452   13.2484    1.4030 C.2     1  UNL1        0.0000
    585 N          18.4327   12.6483    2.6368 N.pl3   1  UNL1        0.0000
    586 N          22.7116   -0.4844   10.6580 N.3     1  UNL1        0.0000
    587 N          24.0304    3.7848    7.7604 N.3     1  UNL1        0.0000
    588 N          22.2108   -4.8255    9.4310 N.pl3   1  UNL1        0.0000
    589 O          23.3652    4.1977    5.2022 O.2     1  UNL1        0.0000
    590 O          12.9545    0.9854    8.0931 O.3     1  UNL1        0.0000
    591 O          20.1930   -3.1642    9.8289 O.3     1  UNL1        0.0000
    592 O          16.7540    9.2944    3.5133 O.3     1  UNL1        0.0000
    593 O          17.5983    7.9176    5.1051 O.3     1  UNL1        0.0000
    594 O          18.6558   -2.9007    8.1900 O.3     1  UNL1        0.0000
    595 O          24.9561    3.8827    3.6253 O.2     1  UNL1        0.0000
    596 O          12.1193    2.3432    9.7056 O.3     1  UNL1        0.0000
    597 O          22.2777    3.6186    2.6280 O.3     1  UNL1        0.0000
    598 O          14.6313    1.4810   10.2059 O.3     1  UNL1        0.0000
    599 O          23.2154    5.9051    3.0779 O.3     1  UNL1        0.0000
    600 O          12.8803   -0.2493   10.6777 O.3     1  UNL1        0.0000
    601 O          17.4800   -3.4384   10.7708 O.3     1  UNL1        0.0000
    602 O          19.2663    8.4405    3.0029 O.3     1  UNL1        0.0000
    603 O          18.4483   -1.1804   10.3227 O.3     1  UNL1        0.0000
    604 O          17.5536    6.6850    2.5082 O.3     1  UNL1        0.0000
    605 O          20.6985    4.3303    5.3523 O.3     1  UNL1        0.0000
    606 O          14.0678   -1.5201    8.0049 O.2     1  UNL1        0.0000
    607 O          19.8498   -4.3157   12.0842 O.2     1  UNL1        0.0000
    608 O          18.1262   10.3693    1.2354 O.2     1  UNL1        0.0000
    609 O          20.6653   -1.5122   12.0777 O.2     1  UNL1        0.0000
    610 O          15.8650    8.5281    1.1898 O.2     1  UNL1        0.0000
    611 O          15.9051   -2.8259    8.0674 O.2     1  UNL1        0.0000
    612 O          18.7486    5.4562    5.2285 O.3     1  UNL1        0.0000
    613 O          25.3967    5.5632    1.2235 O.2     1  UNL1        0.0000
    614 O          11.2406    1.5955   12.0238 O.3     1  UNL1        0.0000
    615 O          24.6073    2.7957    1.2510 O.2     1  UNL1        0.0000
    616 O          13.5227    3.3789   12.0882 O.3     1  UNL1        0.0000
    617 O          20.4762    6.0157    3.1518 O.3     1  UNL1        0.0000
    618 O          15.7794   -0.9720   10.0884 O.3     1  UNL1        0.0000
    619 O          22.9169    4.7900    0.1994 O.3     1  UNL1        0.0000
    620 O          18.3579    7.8713    0.0341 O.3     1  UNL1        0.0000
    621 TI          8.5003   -5.4231   24.4408 Ti      1  UNL1        0.0000
    622 TI         19.3187   -2.5269   15.0728 Ti      1  UNL1        0.0000
    623 TI         12.6025   -9.3315   22.6024 Ti      1  UNL1        0.0000
    624 TI         14.1082   -0.1813   16.8578 Ti      1  UNL1        0.0000
    625 TI         13.1174    1.4878   14.9461 Ti      1  UNL1        0.0000
    626 TI         14.4716   -9.5967   24.5675 Ti      1  UNL1        0.0000
    627 TI          9.4443   -7.1419   22.5350 Ti      1  UNL1        0.0000
    628 TI         17.3389   -2.2367   16.9248 Ti      1  UNL1        0.0000
    629 H          15.0968   -6.1174   21.7983 H       1  UNL1        0.0000
    630 H          11.1746  -11.8585   19.6706 H       1  UNL1        0.0000
    631 H          16.1743    3.2459   17.7959 H      11  UNL11       0.0000
    632 H           8.9928   -1.5184   24.2142 H      12  UNL12       0.0000
    633 H          20.1926   -6.4368   15.3882 H       1  UNL1        0.0000
    634 H           4.5350   -6.1517   24.0659 H       3  UNK3        0.0000
    635 H          22.6985   -0.5153   15.2772 H       1  UNL1        0.0000
    636 H          15.4432  -13.6366   24.1826 H      14  UNL14       0.0000
    637 H           9.0416    0.9116   15.2707 H       1  UNL1        0.0000
    638 H          16.0663   -4.6139   20.0321 H       1  UNL1        0.0000
    639 H          11.3982   -3.9297   21.6332 H       1  UNL1        0.0000
    640 H           7.7136   -9.3090   19.5037 H       1  UNL1        0.0000
    641 H          13.5932   -0.1612   13.0715 H       1  UNL1        0.0000
    642 H          17.4390   -2.7623   13.3734 H       1  UNL1        0.0000
    643 H          15.0195  -10.2384   19.0670 H       1  UNL1        0.0000
    644 H          12.3902    1.6554   20.4739 H       1  UNL1        0.0000
    645 H           5.3078   -3.8519   22.1867 H       1  UNL1        0.0000
    646 H          22.1571   -4.5055   17.3892 H       1  UNL1        0.0000
    647 H           7.7512   -5.0883   18.8689 H       1  UNL1        0.0000
    648 H          10.0423    3.3629   17.3020 H       1  UNL1        0.0000
    649 H          13.5880    4.5891   15.7889 H       1  UNL1        0.0000
    650 H          20.0935   -8.4620   16.5964 H      14  UNL14       0.0000
    651 H          16.2018   -0.5039   15.5239 H       1  UNL1        0.0000
    652 H          11.5203   -7.4806   23.8886 H       1  UNL1        0.0000
    653 H          18.7078   -7.6316   22.9635 H      13  UNK13       0.0000
    654 H          17.2264   -8.1071   23.7127 H      13  UNK13       0.0000
    655 H          19.1959   -3.3868   21.8412 H       1  UNL1        0.0000
    656 H          18.6631   -2.9797   20.2179 H       1  UNL1        0.0000
    657 H          18.2312  -12.6208   22.7790 H       1  UNL1        0.0000
    658 H          16.9473  -11.5252   23.2368 H       1  UNL1        0.0000
    659 H          12.7779   -5.7519   22.5798 H       1  UNL1        0.0000
    660 H          12.3684   -2.4222   19.8653 H       1  UNL1        0.0000
    661 H          17.4116    1.2436   17.0254 H      11  UNL11       0.0000
    662 H           3.6343    1.2530   17.8736 H       1  UNL1        0.0000
    663 C          19.9112   -3.2700   17.9322 C.2     1  UNL1        0.0000
    664 C           7.5385   -5.1416   21.5948 C.3     1  UNL1        0.0000
    665 C          15.1869  -10.3464   21.6981 C.3     1  UNL1        0.0000
    666 C          12.1891    1.8068   17.8106 C.3     1  UNL1        0.0000
    667 C          20.8056   -3.8710   18.9289 C.2     1  UNL1        0.0000
    668 C           6.6090   -4.5147   20.6188 C.ar    1  UNL1        0.0000
    669 C          16.1293  -10.9586   20.7540 C.2     1  UNL1        0.0000
    670 C          11.3023    2.4546   18.8113 C.ar    1  UNL1        0.0000
    671 C          20.5188   -3.8569   20.3315 C.3     1  UNL1        0.0000
    672 C           6.8657   -4.5753   19.2333 C.ar    1  UNL1        0.0000
    673 C          17.2544  -11.7255   21.2069 C.2     1  UNL1        0.0000
    674 C          10.2130    3.2364   18.3673 C.ar    1  UNL1        0.0000
    675 C          11.5476    2.2721   20.1675 C.ar    1  UNL1        0.0000
    676 C          15.8908  -10.8149   19.3694 C.3     1  UNL1        0.0000
    677 C          21.9792   -4.5092   18.4621 C.3     1  UNL1        0.0000
    678 C           5.4704   -3.8819   21.1107 C.ar    1  UNL1        0.0000
    679 C          14.2737   -3.4295   19.8497 C.ar    1  UNL1        0.0000
    680 C          13.1949   -5.1037   21.8113 C.ar    1  UNL1        0.0000
    681 C          17.8474    1.8870   17.7880 C.2    11  UNL11       0.0000
    682 C           9.5006  -10.4998   19.6893 C.2     1  UNL1        0.0000
    683 C          20.1311   -6.3621   13.2461 C.2     1  UNL1        0.0000
    684 C          13.6729    5.4334   13.2687 C.ar    1  UNL1        0.0000
    685 C          22.5973   -0.5822   13.1278 C.2     1  UNL1        0.0000
    686 C           9.2367    0.9563   13.1139 C.ar    1  UNL1        0.0000
    687 C          14.8481   -2.5401   18.8113 C.3     1  UNL1        0.0000
    688 C          10.1037   -9.6092   20.7096 C.2     1  UNL1        0.0000
    689 C          19.9827   -4.9035   13.2246 C.2     1  UNL1        0.0000
    690 C          13.5722    3.9969   13.2321 C.3     1  UNL1        0.0000
    691 C          21.2988   -1.2052   13.1708 C.2     1  UNL1        0.0000
    692 C          10.6449    1.3659   13.1407 C.3     1  UNL1        0.0000
    693 C          12.9529   -3.2329   20.2953 C.ar    1  UNL1        0.0000
    694 C          14.5083   -5.3078   21.3696 C.ar    1  UNL1        0.0000
    695 C          17.1504    3.0215   18.2230 C.2    11  UNL11       0.0000
    696 C          10.1948  -11.6432   19.2498 C.3     1  UNL1        0.0000
    697 C          20.1964   -7.0282   14.4744 C.3     1  UNL1        0.0000
    698 C           9.0163   -0.9285   25.1270 C.2    12  UNL12       0.0000
    699 C          23.2489   -0.3086   14.3629 C.3     1  UNL1        0.0000
    700 C           3.9721   -6.3335   24.9797 C.2     3  UNK3        0.0000
    701 C          19.1072    1.5804   18.3179 C.3    11  UNL11       0.0000
    702 C           8.2326  -10.1993   19.1553 C.3     1  UNL1        0.0000
    703 C          15.0490   -4.4731   20.3910 C.ar    1  UNL1        0.0000
    704 C          12.4168   -4.0701   21.2748 C.ar    1  UNL1        0.0000
    705 C          18.6556   -7.3755   24.9911 C.3    13  UNK13       0.0000
    706 C           8.5391    0.7276   14.3251 C.ar    1  UNL1        0.0000
    707 C          15.5006  -14.1655   25.1300 C.3    15  UNL15       0.0000
    708 C          13.7106    6.1819   14.4976 C.ar    1  UNL1        0.0000
    709 N          13.7981    5.5819   15.7314 N.pl3   1  UNL1        0.0000
    710 N          18.0770   -7.5508   23.7526 N.3    13  UNK13       0.0000
    711 N          19.3958   -3.2816   20.8550 N.3     1  UNL1        0.0000
    712 N          17.5761  -11.8920   22.5256 N.pl3   1  UNL1        0.0000
    713 O          18.7306   -2.8687   18.2968 O.2     1  UNL1        0.0000
    714 O           8.3199   -6.0811   21.1877 O.3     1  UNL1        0.0000
    715 O          15.5584  -10.2306   22.9235 O.3     1  UNL1        0.0000
    716 O          12.1193    2.2280   16.6079 O.3     1  UNL1        0.0000
    717 O          12.9636    0.8512   18.1997 O.3     1  UNL1        0.0000
    718 O          14.0211   -9.9671   21.2846 O.3     1  UNL1        0.0000
    719 O          20.3215   -3.1837   16.7199 O.2     1  UNL1        0.0000
    720 O           7.4847   -4.7233   22.8002 O.3     1  UNL1        0.0000
    721 O          17.6430   -3.4479   15.7226 O.3     1  UNL1        0.0000
    722 O           9.9967   -5.5854   23.3005 O.3     1  UNL1        0.0000
    723 O          18.5808   -1.1614   16.1725 O.3     1  UNL1        0.0000
    724 O           8.2456   -7.3157   23.7723 O.3     1  UNL1        0.0000
    725 O          12.8454  -10.5048   23.8654 O.3     1  UNL1        0.0000
    726 O          14.6316    1.3740   16.0976 O.3     1  UNL1        0.0000
    727 O          13.8137   -8.2468   23.4173 O.3     1  UNL1        0.0000
    728 O          12.9189   -0.3814   15.6028 O.3     1  UNL1        0.0000
    729 O          16.0639   -2.7361   18.4469 O.3     1  UNL1        0.0000
    730 O           9.4331   -8.5865   21.0995 O.2     1  UNL1        0.0000
    731 O          15.2152  -11.3821   25.1789 O.3     1  UNL1        0.0000
    732 O          13.4915    3.3029   14.3300 O.3     1  UNL1        0.0000
    733 O          16.0307   -8.5786   25.1723 O.3     1  UNL1        0.0000
    734 O          11.2303    1.4616   14.2844 O.3     1  UNL1        0.0000
    735 O          11.2705   -9.8923   21.1620 O.2     1  UNL1        0.0000
    736 O          14.1140   -1.6102   18.3231 O.3     1  UNL1        0.0000
    737 O          20.7621   -1.5032   14.3181 O.2     1  UNL1        0.0000
    738 O           6.6059   -5.4710   25.1185 O.3     1  UNL1        0.0000
    739 O          19.9727   -4.2707   14.3456 O.2     1  UNL1        0.0000
    740 O           8.8881   -3.6875   25.1828 O.3     1  UNL1        0.0000
    741 O          15.8415   -1.0507   16.2464 O.3     1  UNL1        0.0000
    742 O          11.1447   -8.0384   23.1830 O.3     1  UNL1        0.0000
    743 O          18.2823   -2.2764   13.2940 O.3     1  UNL1        0.0000
    744 O          13.7232    0.8049   13.1287 O.3     1  UNL1        0.0000
    745 TI          6.6179   16.2559   11.2897 Ti      1  UNL1        0.0000
    746 TI         17.4363   19.1520    1.9216 Ti      1  UNL1        0.0000
    747 TI         10.7201   12.3475    9.4513 Ti      1  UNL1        0.0000
    748 TI         12.2258   21.4977    3.7067 Ti      1  UNL1        0.0000
    749 TI         11.2350   23.1668    1.7949 Ti      1  UNL1        0.0000
    750 TI         12.5892   12.0822   11.4164 Ti      1  UNL1        0.0000
    751 TI          7.5619   14.5370    9.3838 Ti      1  UNL1        0.0000
    752 TI         15.4566   19.4422    3.7737 Ti      1  UNL1        0.0000
    753 H          13.2144   15.5616    8.6472 H       1  UNL1        0.0000
    754 H           9.2922    9.8205    6.5195 H       1  UNL1        0.0000
    755 H          14.2920   24.9249    4.6448 H      15  UNL15       0.0000
    756 H           7.1104   20.1605   11.0631 H       1  UNL1        0.0000
    757 H          18.3103   15.2421    2.2370 H       1  UNL1        0.0000
    758 H           2.6526   15.5272   10.9147 H       1  UNL1        0.0000
    759 H          20.8161   21.1636    2.1260 H       1  UNL1        0.0000
    760 H          13.5608    8.0423   11.0315 H       1  UNL1        0.0000
    761 H           7.1593   22.5905    2.1196 H       1  UNL1        0.0000
    762 H          14.1839   17.0650    6.8809 H       1  UNL1        0.0000
    763 H           9.5158   17.7492    8.4821 H       1  UNL1        0.0000
    764 H           5.8312   12.3699    6.3525 H       1  UNL1        0.0000
    765 H          11.7108   21.5178   -0.0796 H       1  UNL1        0.0000
    766 H          15.5566   18.9167    0.2223 H       1  UNL1        0.0000
    767 H          13.1371   11.4405    5.9159 H       1  UNL1        0.0000
    768 H          10.5078   23.3343    7.3228 H       1  UNL1        0.0000
    769 H           3.4255   17.8271    9.0356 H       1  UNL1        0.0000
    770 H          20.2747   17.1735    4.2381 H       1  UNL1        0.0000
    771 H           5.8688   16.5907    5.7178 H       1  UNL1        0.0000
    772 H           8.1599   25.0418    4.1509 H       1  UNL1        0.0000
    773 H          11.7057   26.2680    2.6377 H       1  UNL1        0.0000
    774 H          18.2111   13.2170    3.4452 H       1  UNL1        0.0000
    775 H          14.3194   21.1751    2.3728 H       1  UNL1        0.0000
    776 H           9.6379   14.1984   10.7375 H       1  UNL1        0.0000
    777 H          16.8254   14.0474    9.8123 H       1  UNL1        0.0000
    778 H          15.3440   13.5719   10.5616 H       1  UNL1        0.0000
    779 H          17.3135   18.2921    8.6901 H       1  UNL1        0.0000
    780 H          16.7807   18.6993    7.0667 H       1  UNL1        0.0000
    781 H          16.3489    9.0582    9.6279 H       1  UNL1        0.0000
    782 H          15.0649   10.1537   10.0857 H       1  UNL1        0.0000
    783 H          10.8955   15.9271    9.4287 H       1  UNL1        0.0000
    784 H          10.4860   19.2567    6.7142 H       1  UNL1        0.0000
    785 H          15.5292   22.9225    3.8743 H      15  UNL15       0.0000
    786 H           1.7519   22.9320    4.7225 H       5  UNK5        0.0000
    787 C          18.0288   18.4089    4.7810 C.2     1  UNL1        0.0000
    788 C           5.6561   16.5374    8.4437 C.3     1  UNL1        0.0000
    789 C          13.3045   11.3326    8.5470 C.3     1  UNL1        0.0000
    790 C          10.3068   23.4858    4.6595 C.3     1  UNL1        0.0000
    791 C          18.9232   17.8079    5.7778 C.2     1  UNL1        0.0000
    792 C           4.7266   17.1642    7.4677 C.ar    1  UNL1        0.0000
    793 C          14.2469   10.7203    7.6029 C.ar    1  UNL1        0.0000
    794 C           9.4200   24.1335    5.6602 C.2     1  UNL1        0.0000
    795 C          18.6364   17.8220    7.1803 C.3     1  UNL1        0.0000
    796 C           4.9833   17.1036    6.0822 C.ar    1  UNL1        0.0000
    797 C          15.3720    9.9535    8.0558 C.ar    1  UNL1        0.0000
    798 C           8.3306   24.9154    5.2162 C.3     1  UNL1        0.0000
    799 C           9.6652   23.9511    7.0164 C.2     1  UNL1        0.0000
    800 C          14.0084   10.8641    6.2182 C.ar    1  UNL1        0.0000
    801 C          20.0968   17.1697    5.3110 C.3     1  UNL1        0.0000
    802 C           3.5880   17.7970    7.9596 C.ar    1  UNL1        0.0000
    803 C          12.3914   18.2495    6.6986 C.ar    1  UNL1        0.0000
    804 C          11.3125   16.5753    8.6602 C.ar    1  UNL1        0.0000
    805 C          15.9650   23.5660    4.6369 C.2    15  UNL15       0.0000
    806 C           7.6182   11.1791    6.5382 C.ar    1  UNL1        0.0000
    807 C          18.2488   15.3168    0.0950 C.2     1  UNL1        0.0000
    808 C          11.7905   27.1124    0.1175 C.2     1  UNL1        0.0000
    809 C          20.7149   21.0968   -0.0234 C.2     1  UNL1        0.0000
    810 C           7.3543   22.6352   -0.0372 C.2     1  UNL1        0.0000
    811 C          12.9657   19.1389    5.6602 C.3     1  UNL1        0.0000
    812 C           8.2213   12.0698    7.5585 C.3     1  UNL1        0.0000
    813 C          18.1003   16.7755    0.0735 C.2     1  UNL1        0.0000
    814 C          11.6898   25.6759    0.0810 C.2     1  UNL1        0.0000
    815 C          19.4164   20.4738    0.0197 C.2     1  UNL1        0.0000
    816 C           8.7626   23.0449   -0.0104 C.2     1  UNL1        0.0000
    817 C          11.0705   18.4461    7.1441 C.ar    1  UNL1        0.0000
    818 C          12.6259   16.3711    8.2184 C.ar    1  UNL1        0.0000
    819 C          15.2680   24.7005    5.0719 C.2    15  UNL15       0.0000
    820 C           8.3124   10.0358    6.0987 C.ar    1  UNL1        0.0000
    821 C          18.3141   14.6508    1.3232 C.2     1  UNL1        0.0000
    822 C           7.1339   20.7505   11.9759 C.3     1  UNL1        0.0000
    823 C          21.3665   21.3704    1.2117 C.3     1  UNL1        0.0000
    824 C           2.0897   15.3454   11.8286 C.ar    1  UNL1        0.0000
    825 C          17.2248   23.2593    5.1667 C.3    15  UNL15       0.0000
    826 C           6.3502   11.4796    6.0042 C.ar    1  UNL1        0.0000
    827 C          13.1666   17.2058    7.2399 C.ar    1  UNL1        0.0000
    828 C          10.5344   17.6089    8.1237 C.ar    1  UNL1        0.0000
    829 C          16.7732   14.3035   11.8400 C.3     1  UNL1        0.0000
    830 C           6.6567   22.4066    1.1740 C.2     1  UNL1        0.0000
    831 C          13.6182    7.5135   11.9788 C.ar    1  UNL1        0.0000
    832 C          11.8282   27.8609    1.3465 C.3     1  UNL1        0.0000
    833 N          11.9157   27.2608    2.5802 N.3     1  UNL1        0.0000
    834 N          16.1946   14.1281   10.6015 N.3     1  UNL1        0.0000
    835 N          17.5134   18.3973    7.7039 N.3     1  UNL1        0.0000
    836 N          15.6938    9.7870    9.3745 N.pl3   1  UNL1        0.0000
    837 O          16.8482   18.8102    5.1457 O.2     1  UNL1        0.0000
    838 O           6.4375   15.5979    8.0366 O.3     1  UNL1        0.0000
    839 O          13.6760   11.4483    9.7724 O.3     1  UNL1        0.0000
    840 O          10.2370   23.9069    3.4568 O.3     1  UNL1        0.0000
    841 O          11.0813   22.5301    5.0486 O.3     1  UNL1        0.0000
    842 O          12.1387   11.7118    8.1335 O.3     1  UNL1        0.0000
    843 O          18.4391   18.4952    3.5688 O.2     1  UNL1        0.0000
    844 O           5.6023   16.9557    9.6491 O.3     1  UNL1        0.0000
    845 O          15.7607   18.2311    2.5714 O.3     1  UNL1        0.0000
    846 O           8.1143   16.0935   10.1494 O.3     1  UNL1        0.0000
    847 O          16.6984   20.5176    3.0213 O.3     1  UNL1        0.0000
    848 O           6.3632   14.3632   10.6212 O.3     1  UNL1        0.0000
    849 O          10.9630   11.1741   10.7143 O.3     1  UNL1        0.0000
    850 O          12.7492   23.0530    2.9464 O.3     1  UNL1        0.0000
    851 O          11.9313   13.4321   10.2662 O.3     1  UNL1        0.0000
    852 O          11.0365   21.2976    2.4517 O.3     1  UNL1        0.0000
    853 O          14.1815   18.9428    5.2958 O.3     1  UNL1        0.0000
    854 O           7.5507   13.0924    7.9484 O.3     1  UNL1        0.0000
    855 O          13.3328   10.2968   12.0277 O.3     1  UNL1        0.0000
    856 O          11.6091   24.9818    1.1788 O.2     1  UNL1        0.0000
    857 O          14.1483   13.1003   12.0212 O.2     1  UNL1        0.0000
    858 O           9.3479   23.1406    1.1332 O.2     1  UNL1        0.0000
    859 O           9.3881   11.7867    8.0109 O.3     1  UNL1        0.0000
    860 O          12.2316   20.0687    5.1720 O.3     1  UNL1        0.0000
    861 O          18.8797   20.1757    1.1670 O.2     1  UNL1        0.0000
    862 O           4.7235   16.2080   11.9673 O.3     1  UNL1        0.0000
    863 O          18.0903   17.4083    1.1945 O.2     1  UNL1        0.0000
    864 O           7.0057   17.9914   12.0317 O.2     1  UNL1        0.0000
    865 O          13.9591   20.6282    3.0953 O.3     1  UNL1        0.0000
    866 O           9.2624   13.6405   10.0318 O.3     1  UNL1        0.0000
    867 O          16.3999   19.4025    0.1428 O.3     1  UNL1        0.0000
    868 O          11.8409   22.4838   -0.0224 O.3     1  UNL1        0.0000
    869 TI          1.9832    9.1895   24.3843 Ti      1  UNL1        0.0000
    870 TI         12.8017   12.0856   15.0162 Ti      1  UNL1        0.0000
    871 TI          6.0855    5.2811   22.5459 Ti      1  UNL1        0.0000
    872 TI          7.5912   14.4312   16.8013 Ti      1  UNL1        0.0000
    873 TI          6.6004   16.1003   14.8895 Ti      1  UNL1        0.0000
    874 TI          7.9546    5.0158   24.5110 Ti      1  UNL1        0.0000
    875 TI          2.9273    7.4706   22.4784 Ti      1  UNL1        0.0000
    876 TI         10.8219   12.3758   16.8683 Ti      1  UNL1        0.0000
    877 H           8.5798    8.4951   21.7418 H       1  UNL1        0.0000
    878 H           4.6575    2.7540   19.6141 H       1  UNL1        0.0000
    879 H           9.6573   17.8584   17.7394 H      16  UNL16       0.0000
    880 H           2.4758   13.0941   24.1577 H      17  UNL17       0.0000
    881 H          13.6756    8.1757   15.3316 H       1  UNL1        0.0000
    882 H          -1.9820    8.4608   24.0093 H       9  UNK9        0.0000
    883 H          16.1815   14.0972   15.2207 H       1  UNL1        0.0000
    884 H           8.9262    0.9759   24.1261 H      12  UNL12       0.0000
    885 H           2.5246   15.5241   15.2142 H       1  UNL1        0.0000
    886 H           9.5493    9.9986   19.9755 H       1  UNL1        0.0000
    887 H           4.8811   10.6828   21.5767 H       1  UNL1        0.0000
    888 H           1.1965    5.3035   19.4471 H       1  UNL1        0.0000
    889 H           7.0762   14.4514   13.0150 H       1  UNL1        0.0000
    890 H          10.9220   11.8503   13.3169 H       1  UNL1        0.0000
    891 H           8.5024    4.3741   19.0105 H       1  UNL1        0.0000
    892 H           5.8731   16.2679   20.4174 H       1  UNL1        0.0000
    893 H          -1.2092   10.7606   22.1302 H       1  UNL1        0.0000
    894 H          15.6401   10.1071   17.3327 H       1  UNL1        0.0000
    895 H           1.2342    9.5242   18.8124 H       1  UNL1        0.0000
    896 H           3.5253   17.9754   17.2455 H       1  UNL1        0.0000
    897 H           7.0710   19.2016   15.7324 H       1  UNL1        0.0000
    898 H          13.5765    6.1505   16.5398 H       1  UNL1        0.0000
    899 H           9.6848   14.1087   15.4674 H       1  UNL1        0.0000
    900 H           5.0032    7.1320   23.8321 H       1  UNL1        0.0000
    901 H          12.1908    6.9810   22.9069 H      18  UNL18       0.0000
    902 H          10.7094    6.5054   23.6562 H      18  UNL18       0.0000
    903 H          12.6788   11.2257   21.7847 H       1  UNL1        0.0000
    904 H          12.1461   11.6328   20.1613 H       1  UNL1        0.0000
    905 H          11.7142    1.9917   22.7225 H       1  UNL1        0.0000
    906 H          10.4303    3.0873   23.1803 H       1  UNL1        0.0000
    907 H           6.2608    8.8607   22.5233 H       1  UNL1        0.0000
    908 H           5.8514   12.1903   19.8088 H       1  UNL1        0.0000
    909 H          10.8946   15.8561   16.9689 H      16  UNL16       0.0000
    910 H          -2.8827   15.8655   17.8171 H       6  UNK6        0.0000
    911 C          13.3941   11.3425   17.8756 C.2     1  UNL1        0.0000
    912 C           1.0215    9.4709   21.5383 C.3     1  UNL1        0.0000
    913 C           8.6698    4.2661   21.6416 C.3     1  UNL1        0.0000
    914 C           5.6721   16.4193   17.7541 C.3     1  UNL1        0.0000
    915 C          14.2886   10.7415   18.8724 C.2     1  UNL1        0.0000
    916 C           0.0920   10.0978   20.5623 C.ar    1  UNL1        0.0000
    917 C           9.6122    3.6539   20.6975 C.ar    1  UNL1        0.0000
    918 C           4.7853   17.0671   18.7548 C.2     1  UNL1        0.0000
    919 C          14.0017   10.7556   20.2750 C.3     1  UNL1        0.0000
    920 C           0.3486   10.0372   19.1768 C.ar    1  UNL1        0.0000
    921 C          10.7373    2.8870   21.1504 C.ar    1  UNL1        0.0000
    922 C           3.6959   17.8489   18.3108 C.3     1  UNL1        0.0000
    923 C           5.0306   16.8846   20.1110 C.2     1  UNL1        0.0000
    924 C           9.3738    3.7976   19.3128 C.ar    1  UNL1        0.0000
    925 C          15.4622   10.1033   18.4056 C.3     1  UNL1        0.0000
    926 C          -1.0466   10.7306   21.0542 C.ar    1  UNL1        0.0000
    927 C           7.7567   11.1830   19.7932 C.ar    1  UNL1        0.0000
    928 C           6.6778    9.5088   21.7548 C.ar    1  UNL1        0.0000
    929 C          11.3303   16.4996   17.7315 C.2    16  UNL16       0.0000
    930 C           2.9835    4.1127   19.6328 C.ar    1  UNL1        0.0000
    931 C          13.6141    8.2504   13.1896 C.ar    1  UNL1        0.0000
    932 C           7.1559   20.0459   13.2121 C.2     1  UNL1        0.0000
    933 C          16.0802   14.0303   13.0712 C.2     1  UNL1        0.0000
    934 C           2.7197   15.5688   13.0574 C.ar    1  UNL1        0.0000
    935 C           8.3311   12.0724   18.7548 C.3     1  UNL1        0.0000
    936 C           3.5867    5.0033   20.6531 C.3     1  UNL1        0.0000
    937 C          13.4657    9.7090   13.1681 C.3     1  UNL1        0.0000
    938 C           7.0552   18.6094   13.1756 C.2     1  UNL1        0.0000
    939 C          14.7817   13.4074   13.1143 C.2     1  UNL1        0.0000
    940 C           4.1279   15.9784   13.0842 C.3     1  UNL1        0.0000
    941 C           6.4358   11.3796   20.2387 C.ar    1  UNL1        0.0000
    942 C           7.9913    9.3047   21.3130 C.ar    1  UNL1        0.0000
    943 C          10.6334   17.6340   18.1665 C.2    16  UNL16       0.0000
    944 C           3.6777    2.9693   19.1933 C.ar    1  UNL1        0.0000
    945 C          13.6794    7.5843   14.4178 C.ar    1  UNL1        0.0000
    946 C           2.4993   13.6841   25.0705 C.3    16  UNL16       0.0000
    947 C          16.7318   14.3039   14.3063 C.3     1  UNL1        0.0000
    948 C          -2.5450    8.2790   24.9232 C.2     9  UNK9        0.0000
    949 C          12.5902   16.1929   18.2613 C.3    16  UNL16       0.0000
    950 C           1.7155    4.4132   19.0988 C.ar    1  UNL1        0.0000
    951 C           8.5320   10.1394   20.3345 C.ar    1  UNL1        0.0000
    952 C           5.8998   10.5425   21.2183 C.ar    1  UNL1        0.0000
    953 C          12.1386    7.2371   24.9346 C.3    18  UNL18       0.0000
    954 C           2.0221   15.3402   14.2686 C.ar    1  UNL1        0.0000
    955 C           8.9835    0.4471   25.0734 C.2    12  UNL12       0.0000
    956 C           7.1935   20.7944   14.4411 C.3     1  UNL1        0.0000
    957 N           7.2811   20.1944   15.6748 N.3     1  UNL1        0.0000
    958 N          11.5599    7.0617   23.6961 N.3    18  UNL18       0.0000
    959 N          12.8788   11.3309   20.7985 N.3     1  UNL1        0.0000
    960 N          11.0591    2.7206   22.4691 N.pl3   1  UNL1        0.0000
    961 O          12.2136   11.7438   18.2403 O.2     1  UNL1        0.0000
    962 O           1.8028    8.5314   21.1312 O.3     1  UNL1        0.0000
    963 O           9.0414    4.3819   22.8670 O.3     1  UNL1        0.0000
    964 O           5.6023   16.8405   16.5514 O.3     1  UNL1        0.0000
    965 O           6.4466   15.4637   18.1432 O.3     1  UNL1        0.0000
    966 O           7.5041    4.6454   21.2281 O.3     1  UNL1        0.0000
    967 O          13.8044   11.4288   16.6634 O.2     1  UNL1        0.0000
    968 O           0.9677    9.8892   22.7437 O.3     1  UNL1        0.0000
    969 O          11.1260   11.1646   15.6661 O.3     1  UNL1        0.0000
    970 O           3.4797    9.0271   23.2440 O.3     1  UNL1        0.0000
    971 O          12.0638   13.4512   16.1160 O.3     1  UNL1        0.0000
    972 O           1.7286    7.2968   23.7158 O.3     1  UNL1        0.0000
    973 O           6.3284    4.1077   23.8089 O.3     1  UNL1        0.0000
    974 O           8.1146   15.9865   16.0410 O.3     1  UNL1        0.0000
    975 O           7.2967    6.3657   23.3608 O.3     1  UNL1        0.0000
    976 O           6.4019   14.2311   15.5463 O.3     1  UNL1        0.0000
    977 O           9.5468   11.8764   18.3904 O.3     1  UNL1        0.0000
    978 O           2.9161    6.0260   21.0430 O.3     1  UNL1        0.0000
    979 O           8.6981    3.2304   25.1223 O.3     1  UNL1        0.0000
    980 O           6.9745   17.9154   14.2735 O.2     1  UNL1        0.0000
    981 O           9.5136    6.0339   25.1158 O.3     1  UNL1        0.0000
    982 O           4.7133   16.0741   14.2279 O.3     1  UNL1        0.0000
    983 O           4.7534    4.7202   21.1055 O.3     1  UNL1        0.0000
    984 O           7.5970   13.0023   18.2666 O.3     1  UNL1        0.0000
    985 O          14.2451   13.1093   14.2616 O.2     1  UNL1        0.0000
    986 O           0.0889    9.1416   25.0619 O.3     1  UNL1        0.0000
    987 O          13.4556   10.3418   14.2891 O.3     1  UNL1        0.0000
    988 O           2.3711   10.9250   25.1263 O.3     1  UNL1        0.0000
    989 O           9.3245   13.5618   16.1899 O.3     1  UNL1        0.0000
    990 O           4.6277    6.5741   23.1264 O.3     1  UNL1        0.0000
    991 O          11.7652   12.3361   13.2374 O.3     1  UNL1        0.0000
    992 O           7.2062   15.4174   13.0722 O.3     1  UNL1        0.0000
@<TRIPOS>BOND
     1   269   372    1
     2   314   320    2
     3   314   334    1
     4   313   319    2
     5   313   327    1
     6    21   124    1
     7   372   253    1
     8   320   362    1
     9   765   868    1
    10    66    72    2
    11    66    86    1
    12   319   365    1
    13    65    71    2
    14    65    79    1
    15   124     5    1
    16    72   114    1
    17   810   816    2
    18   810   830    1
    19   809   815    2
    20   809   823    1
    21   517   620    1
    22   868   749    1
    23   317   311    2
    24   317   367    1
    25    71   117    1
    26   816   858    1
    27   318   312    2
    28   318   360    1
    29   311   325    1
    30   562   568    2
    31   562   582    1
    32   815   861    1
    33   312   336    1
    34   561   567    2
    35   561   575    1
    36   620   501    1
    37    69    63    2
    38    69   119    1
    39   568   610    1
    40    70    64    2
    41    70   112    1
    42   371   270    1
    43   371   250    1
    44    63    77    1
    45   813   807    2
    46   813   863    1
    47   567   613    1
    48   814   808    2
    49   814   856    1
    50    64    88    1
    51   807   821    1
    52   123    22    1
    53   123     2    1
    54   808   832    1
    55   565   559    2
    56   565   615    1
    57   566   560    2
    58   566   608    1
    59   867   766    1
    60   867   746    1
    61   559   573    1
    62   560   584    1
    63   619   518    1
    64   619   498    1
    65   362   253    1
    66   365   250    1
    67   334   265    1
    68   360   253    1
    69   114     5    1
    70   367   250    1
    71   327   830    2
    72   327   263    1
    73   858   749    1
    74   117     2    1
    75    86    17    1
    76   112     5    1
    77   119     2    1
    78   861   746    1
    79   830   761    1
    80    79   582    2
    81    79    15    1
    82   856   749    1
    83   610   501    1
    84   863   746    1
    85   823   759    1
    86   613   498    1
    87   582   513    1
    88   325    88    2
    89   325   261    1
    90   608   501    1
    91   615   498    1
    92   336   337    1
    93   575   511    1
    94    77    13    1
    95    88    89    1
    96   821   584    2
    97   821   757    1
    98   832   833    1
    99   573   509    1
   100   584   585    1
   101   253   356    1
   102   253   354    1
   103   253   344    1
   104     5   108    1
   105     5   106    1
   106     5    96    1
   107   749   852    1
   108   749   850    1
   109   749   840    1
   110   250   349    1
   111   250   351    1
   112   250   347    1
   113   501   604    1
   114   501   602    1
   115   501   592    1
   116     2   101    1
   117     2   103    1
   118     2    99    1
   119   746   845    1
   120   746   847    1
   121   746   843    1
   122   498   597    1
   123   498   599    1
   124   498   595    1
   125   279   369    1
   126    31   121    1
   127   356   252    1
   128   775   865    1
   129   108     4    1
   130   527   617    1
   131   852   748    1
   132   349   256    1
   133   337   277    1
   134   604   500    1
   135   101     8    1
   136    89    29    1
   137    89   278    1
   138   845   752    1
   139   833   773    1
   140   597   504    1
   141   585   525    1
   142   585   774    1
   143   354   252    1
   144   106     4    1
   145   351   256    1
   146   850   748    1
   147   103     8    1
   148   602   500    1
   149   369   256    1
   150   847   752    1
   151   121     8    1
   152   599   504    1
   153   865   752    1
   154   617   504    1
   155   344   294    1
   156    96    46    1
   157   840   790    1
   158   347   291    1
   159   592   542    1
   160    99    43    1
   161   843   787    1
   162   252   345    1
   163   252   364    1
   164   595   539    1
   165     4    97    1
   166     4   116    1
   167   256   341    1
   168   256   357    1
   169   748   841    1
   170   748   860    1
   171     8    93    1
   172     8   109    1
   173   500   593    1
   174   500   612    1
   175   752   837    1
   176   752   853    1
   177   289   309    1
   178   504   589    1
   179   504   605    1
   180    41    61    1
   181   785   805    1
   182   537   557    1
   183   276   302    1
   184    28    54    1
   185   274   305    1
   186   772   798    1
   187    26    57    1
   188   524   550    1
   189   770   801    1
   190   522   553    1
   191   309   323    1
   192   309   329    2
   193   259   323    1
   194   294   345    1
   195   294   298    1
   196    61    75   ar
   197    61    81   ar
   198    11    75    1
   199    46    97    1
   200    46    50    1
   201   805   819    2
   202   805   825    1
   203   755   819    1
   204   790   841    1
   205   790   794    1
   206   291   341    1
   207   291   295    1
   208   557   571    2
   209   557   577    1
   210   507   571    1
   211   542   593    1
   212   542   546    1
   213   786   329    1
   214    43    93    1
   215    43    47    1
   216   538    81    1
   217   787   837    1
   218   787   791    2
   219   539   589    1
   220   539   543    2
   221    75   826   ar
   222   364   315    1
   223   302   298    1
   224    81   820   ar
   225   116    67    1
   226   860   811    1
   227    54    50   ar
   228    54   304   ar
   229   357   315    1
   230   798   794    1
   231   305   295   ar
   232   305   796   ar
   233   612   563    1
   234   109    67    1
   235   550   546   ar
   236   550   800   ar
   237    57    47   ar
   238    57   548   ar
   239   853   811    1
   240   801   791    1
   241   605   563    1
   242   553   543    1
   243   298   303    2
   244   315   307    1
   245    50    55   ar
   246    67    59    1
   247   275   300    1
   248   794   799    2
   249   811   803    1
   250    27    52    1
   251   295   299   ar
   252   546   551   ar
   253   563   555    1
   254   771   796    1
   255    47    51   ar
   256   523   548    1
   257   791   795    1
   258   271   304    1
   259   543   547    1
   260    23    56    1
   261   330   268    1
   262   330   310    1
   263   767   800    1
   264    82    20    1
   265    82    62    1
   266   519   552    1
   267   300   296    1
   268   826   764    1
   269   826   806   ar
   270   324   258    1
   271   324   310    1
   272    52    48    1
   273   578   516    1
   274   578   558    1
   275    76    10    1
   276    76    62    1
   277   796   792   ar
   278   820   754    1
   279   820   806   ar
   280   304   297   ar
   281   548   544   ar
   282   572   506    1
   283   572   558    1
   284    56    49    1
   285   800   793   ar
   286   552   545    1
   287   310   316    2
   288    62    68    2
   289   806   812    1
   290   558   564    2
   291   307   321   ar
   292   307   331   ar
   293   288   321    1
   294    59    73   ar
   295    59    83   ar
   296    40    73    1
   297   803   817   ar
   298   803   827   ar
   299   784   817    1
   300   555   569   ar
   301   555   579   ar
   302   536   569    1
   303   266   331    1
   304    18    83    1
   305   762   827    1
   306   303   272    1
   307   514   579    1
   308   284   339    1
   309    55    24    1
   310    55   301   ar
   311   799   768    1
   312    36    91    1
   313   321   332   ar
   314   780   835    1
   315   551   520    1
   316   551   797   ar
   317   299   339    1
   318   299   802   ar
   319    73    84   ar
   320   532   587    1
   321   817   828   ar
   322    51    91    1
   323    51   554   ar
   324   331   322   ar
   325   795   835    1
   326   569   580   ar
   327    83    74   ar
   328   547   587    1
   329   827   818   ar
   330   579   570   ar
   331   296   306    2
   332   296   292    1
   333    48    58    2
   334    48    44    1
   335   792   802   ar
   336   792   788    1
   337   316   358    1
   338   316   363    1
   339   297   301   ar
   340   297   293    1
   341   544   554   ar
   342   544   540    1
   343    68   110    1
   344    68   115    1
   345   812   854    1
   346   812   859    1
   347    49    53    2
   348    49    45    1
   349   793   797   ar
   350   793   789    1
   351   339   283    1
   352   564   606    1
   353   564   611    1
   354   545   549    2
   355   545   541    1
   356    91    35    1
   357   835   779    1
   358   587   531    1
   359   358   255    1
   360   306   273    1
   361   110     7    1
   362   363   251    1
   363    58    25    1
   364   342   292    1
   365   342   255    1
   366   854   751    1
   367   802   769    1
   368   301   340    1
   369   115     3    1
   370    94    44    1
   371    94     7    1
   372   606   503    1
   373   859   747    1
   374   554   521    1
   375    53    92    1
   376   332   267    1
   377   332   308   ar
   378   838   788    1
   379   838   751    1
   380   346   293    1
   381   346   251    1
   382   797   836    1
   383   611   499    1
   384    84    19    1
   385    84    60   ar
   386   590   540    1
   387   590   503    1
   388    98    45    1
   389    98     3    1
   390   549   588    1
   391   828   763    1
   392   828   804   ar
   393   322   257    1
   394   322   308   ar
   395   842   789    1
   396   842   747    1
   397   580   515    1
   398   580   556   ar
   399    74     9    1
   400    74    60   ar
   401   594   541    1
   402   594   499    1
   403   818   753    1
   404   818   804   ar
   405   570   505    1
   406   570   556   ar
   407   292   348    1
   408    44   100    1
   409   788   844    1
   410   293   343    1
   411   540   596    1
   412    45    95    1
   413   789   839    1
   414   308   287    1
   415   541   591    1
   416    60    39    1
   417   804   783    1
   418   556   535    1
   419   340   285    1
   420   340   286    1
   421   255   370    1
   422   255   350    1
   423   255   352    1
   424    92    37    1
   425    92    38    1
   426     7   122    1
   427     7   102    1
   428     7   104    1
   429   251   355    1
   430   251   353    1
   431   836   781    1
   432   836   782    1
   433   751   866    1
   434   751   846    1
   435   751   848    1
   436     3   107    1
   437     3   105    1
   438   588   533    1
   439   588   534    1
   440   503   618    1
   441   503   598    1
   442   503   600    1
   443   747   851    1
   444   747   849    1
   445   499   603    1
   446   499   601    1
   447   348   249    1
   448   100     1    1
   449   844   745    1
   450   343   254    1
   451   596   497    1
   452   281   338    1
   453    95     6    1
   454   839   750    1
   455    33    90    1
   456   777   834    1
   457   591   502    1
   458   529   586    1
   459   370   280    1
   460   122    32    1
   461   866   776    1
   462   350   249    1
   463   618   528    1
   464   102     1    1
   465   846   745    1
   466   355   254    1
   467   598   497    1
   468   107     6    1
   469   851   750    1
   470   603   502    1
   471   282   338    1
   472   338   333    1
   473    34    90    1
   474   352   249    1
   475   778   834    1
   476    90    85    1
   477   104     1    1
   478   834   829    1
   479   530   586    1
   480   848   745    1
   481   353   254    1
   482   586   581    1
   483   600   497    1
   484   105     6    1
   485   849   750    1
   486   601   502    1
   487   262   328    1
   488    14    80    1
   489   758   824    1
   490   264   335    1
   491   510   576    1
   492   260   326    1
   493    16    87    1
   494    12    78    1
   495   760   831    1
   496   756   822    1
   497   512   583    1
   498   508   574    1
   499   249   366    1
   500   249   368    1
   501     1   118    1
   502     1   120    1
   503   745   862    1
   504   745   864    1
   505   254   361    1
   506   254   359    1
   507   254   495    1
   508   497   614    1
   509   497   616    1
   510     6   113    1
   511     6   111    1
   512     6   247    1
   513   750   857    1
   514   750   855    1
   515   750   991    1
   516   502   609    1
   517   502   607    1
   518   502   743    1
   519   328   438    1
   520   333   824   ar
   521   333   437   ar
   522    80   190    1
   523    85   576   ar
   524    85   189   ar
   525   824   934   ar
   526   829   933    1
   527   366   444    1
   528   576   686   ar
   529   326   436    1
   530   335    78   ar
   531   335   435   ar
   532   581   685    1
   533   361   443    1
   534   118   196    1
   535   359   441    1
   536   368   442    1
   537    78   188   ar
   538    87   187    1
   539   862   940    1
   540   822   932    1
   541   831   574   ar
   542   831   931   ar
   543   113   195    1
   544   111   193    1
   545   120   194    1
   546   857   939    1
   547   614   692    1
   548   855   937    1
   549   864   938    1
   550   574   684   ar
   551   583   683    1
   552   609   691    1
   553   607   689    1
   554   616   690    1
   555   393   496    1
   556   438   444    2
   557   438   458    1
   558   437   443    1
   559   437   451   ar
   560   145   248    1
   561   496   377    1
   562   444   486    1
   563   889   992    1
   564   190   196    2
   565   190   210    1
   566   443   489    1
   567   189   195    1
   568   189   203   ar
   569   248   129    1
   570   196   238    1
   571   934   940    1
   572   934   954   ar
   573   933   939    2
   574   933   947    1
   575   641   744    1
   576   992   873    1
   577   441   435    1
   578   441   491    1
   579   195   241    1
   580   940   982    1
   581   442   436    2
   582   442   484    1
   583   435   449   ar
   584   686   692    1
   585   686   706   ar
   586   939   985    1
   587   436   460    1
   588   685   691    2
   589   685   699    1
   590   744   625    1
   591   193   187    2
   592   193   243    1
   593   692   734    1
   594   194   188    1
   595   194   236    1
   596   495   394    1
   597   187   201    1
   598   937   931    1
   599   937   987    1
   600   691   737    1
   601   938   932    2
   602   938   980    1
   603   188   212   ar
   604   931   945   ar
   605   247   146    1
   606   932   956    1
   607   689   683    2
   608   689   739    1
   609   690   684    1
   610   690   732    1
   611   991   890    1
   612   683   697    1
   613   684   708   ar
   614   743   642    1
   615   486   377    1
   616   489   374    1
   617   458   389    1
   618   484   377    1
   619   238   129    1
   620   491   374    1
   621   451   954   ar
   622   451   387    1
   623   982   873    1
   624   241   126    1
   625   210   141    1
   626   236   129    1
   627   243   126    1
   628   985   870    1
   629   954   885    1
   630   203   706   ar
   631   203   139    1
   632   980   873    1
   633   734   625    1
   634   987   870    1
   635   947   883    1
   636   737   622    1
   637   706   637    1
   638   449   212   ar
   639   449   385    1
   640   732   625    1
   641   739   622    1
   642   460   461    1
   643   699   635    1
   644   201   137    1
   645   212   213    1
   646   945   708   ar
   647   945   881    1
   648   956   957    1
   649   697   633    1
   650   708   709    1
   651   377   480    1
   652   377   478    1
   653   377   468    1
   654   129   232    1
   655   129   230    1
   656   129   220    1
   657   873   976    1
   658   873   974    1
   659   873   964    1
   660   374   473    1
   661   374   475    1
   662   374   471    1
   663   625   728    1
   664   625   726    1
   665   625   716    1
   666   126   225    1
   667   126   227    1
   668   126   223    1
   669   870   969    1
   670   870   971    1
   671   870   967    1
   672   622   721    1
   673   622   723    1
   674   622   719    1
   675   403   493    1
   676   155   245    1
   677   480   376    1
   678   899   989    1
   679   232   128    1
   680   651   741    1
   681   976   872    1
   682   473   380    1
   683   461   401    1
   684   728   624    1
   685   225   132    1
   686   213   153    1
   687   213   402    1
   688   969   876    1
   689   957   897    1
   690   721   628    1
   691   709   649    1
   692   709   898    1
   693   478   376    1
   694   230   128    1
   695   475   380    1
   696   974   872    1
   697   227   132    1
   698   726   624    1
   699   493   380    1
   700   971   876    1
   701   245   132    1
   702   723   628    1
   703   989   876    1
   704   741   628    1
   705   468   418    1
   706   220   170    1
   707   964   914    1
   708   471   415    1
   709   716   666    1
   710   223   167    1
   711   967   911    1
   712   376   469    1
   713   376   488    1
   714   719   663    1
   715   128   221    1
   716   128   240    1
   717   380   465    1
   718   380   481    1
   719   872   965    1
   720   872   984    1
   721   132   217    1
   722   132   233    1
   723   624   717    1
   724   624   736    1
   725   876   961    1
   726   876   977    1
   727   413   433    1
   728   628   713    1
   729   628   729    1
   730   165   185    1
   731   909   929    1
   732   661   681    1
   733   400   426    1
   734   152   178    1
   735   398   429    1
   736   896   922    1
   737   150   181    1
   738   648   674    1
   739   894   925    1
   740   646   677    1
   741   433   447    2
   742   433   453    1
   743   383   447    1
   744   418   469    1
   745   418   422    1
   746   185   199   ar
   747   185   205   ar
   748   135   199    1
   749   170   221    1
   750   170   174    1
   751   929   943    2
   752   929   949    1
   753   879   943    1
   754   914   965    1
   755   914   918    1
   756   415   465    1
   757   415   419    1
   758   681   695    2
   759   681   701    1
   760   631   695    1
   761   666   717    1
   762   666   670    1
   763   910   453    1
   764   167   217    1
   765   167   171    1
   766   662   205    1
   767   911   961    1
   768   911   915    2
   769   663   713    1
   770   663   667    2
   771   199   950   ar
   772   488   439    1
   773   426   422    1
   774   205   944   ar
   775   240   191    1
   776   984   935    1
   777   178   174   ar
   778   178   428   ar
   779   481   439    1
   780   922   918    1
   781   429   419   ar
   782   429   920   ar
   783   736   687    1
   784   233   191    1
   785   674   670   ar
   786   674   924   ar
   787   181   171   ar
   788   181   672   ar
   789   977   935    1
   790   925   915    1
   791   729   687    1
   792   677   667    1
   793   422   427    2
   794   439   431    1
   795   174   179   ar
   796   191   183    1
   797   399   424    1
   798   918   923    2
   799   935   927    1
   800   151   176    1
   801   419   423   ar
   802   670   675   ar
   803   687   679    1
   804   895   920    1
   805   171   175   ar
   806   647   672    1
   807   915   919    1
   808   395   428    1
   809   667   671    1
   810   147   180    1
   811   454   392    1
   812   454   434    1
   813   891   924    1
   814   206   144    1
   815   206   186    1
   816   643   676    1
   817   424   420    1
   818   950   888    1
   819   950   930   ar
   820   448   382    1
   821   448   434    1
   822   176   172    1
   823   702   640    1
   824   702   682    1
   825   200   134    1
   826   200   186    1
   827   920   916   ar
   828   944   878    1
   829   944   930   ar
   830   428   421   ar
   831   672   668   ar
   832   696   630    1
   833   696   682    1
   834   180   173    1
   835   924   917   ar
   836   676   669    1
   837   434   440    2
   838   186   192    2
   839   930   936    1
   840   682   688    2
   841   431   445   ar
   842   431   455   ar
   843   412   445    1
   844   183   197   ar
   845   183   207   ar
   846   164   197    1
   847   927   941   ar
   848   927   951   ar
   849   908   941    1
   850   679   693   ar
   851   679   703   ar
   852   660   693    1
   853   390   455    1
   854   142   207    1
   855   886   951    1
   856   427   396    1
   857   638   703    1
   858   408   463    1
   859   179   148    1
   860   179   425   ar
   861   923   892    1
   862   160   215    1
   863   445   456   ar
   864   904   959    1
   865   675   644    1
   866   675   921   ar
   867   423   463    1
   868   423   926   ar
   869   197   208   ar
   870   656   711    1
   871   941   952   ar
   872   175   215    1
   873   175   678   ar
   874   455   446   ar
   875   919   959    1
   876   693   704   ar
   877   207   198   ar
   878   671   711    1
   879   951   942   ar
   880   703   694   ar
   881   420   430    2
   882   420   416    1
   883   172   182    2
   884   172   168    1
   885   916   926   ar
   886   916   912    1
   887   440   482    1
   888   440   487    1
   889   421   425   ar
   890   421   417    1
   891   668   678   ar
   892   668   664    1
   893   192   234    1
   894   192   239    1
   895   936   978    1
   896   936   983    1
   897   173   177    2
   898   173   169    1
   899   917   921   ar
   900   917   913    1
   901   463   407    1
   902   688   730    1
   903   688   735    1
   904   669   673    2
   905   669   665    1
   906   215   159    1
   907   959   903    1
   908   711   655    1
   909   482   379    1
   910   430   397    1
   911   234   131    1
   912   487   375    1
   913   182   149    1
   914   466   416    1
   915   466   379    1
   916   978   875    1
   917   926   893    1
   918   425   464    1
   919   239   127    1
   920   218   168    1
   921   218   131    1
   922   730   627    1
   923   983   871    1
   924   678   645    1
   925   177   216    1
   926   456   391    1
   927   456   432   ar
   928   962   912    1
   929   962   875    1
   930   470   417    1
   931   470   375    1
   932   921   960    1
   933   735   623    1
   934   208   143    1
   935   208   184   ar
   936   714   664    1
   937   714   627    1
   938   222   169    1
   939   222   127    1
   940   673   712    1
   941   952   887    1
   942   952   928   ar
   943   446   381    1
   944   446   432   ar
   945   966   913    1
   946   966   871    1
   947   704   639    1
   948   704   680   ar
   949   198   133    1
   950   198   184   ar
   951   718   665    1
   952   718   623    1
   953   942   877    1
   954   942   928   ar
   955   694   629    1
   956   694   680   ar
   957   416   472    1
   958   168   224    1
   959   912   968    1
   960   417   467    1
   961   664   720    1
   962   169   219    1
   963   913   963    1
   964   432   411    1
   965   665   715    1
   966   184   163    1
   967   928   907    1
   968   680   659    1
   969   464   409    1
   970   464   410    1
   971   379   494    1
   972   379   474    1
   973   379   476    1
   974   216   161    1
   975   216   162    1
   976   131   246    1
   977   131   226    1
   978   131   228    1
   979   375   479    1
   980   375   477    1
   981   960   905    1
   982   960   906    1
   983   875   990    1
   984   875   970    1
   985   875   972    1
   986   127   231    1
   987   127   229    1
   988   712   657    1
   989   712   658    1
   990   627   742    1
   991   627   722    1
   992   627   724    1
   993   871   975    1
   994   871   973    1
   995   623   727    1
   996   623   725    1
   997   472   373    1
   998   224   125    1
   999   968   869    1
  1000   467   378    1
  1001   720   621    1
  1002   405   462    1
  1003   219   130    1
  1004   963   874    1
  1005   157   214    1
  1006   901   958    1
  1007   715   626    1
  1008   653   710    1
  1009   494   404    1
  1010   246   156    1
  1011   990   900    1
  1012   474   373    1
  1013   742   652    1
  1014   226   125    1
  1015   970   869    1
  1016   479   378    1
  1017   722   621    1
  1018   231   130    1
  1019   975   874    1
  1020   727   626    1
  1021   406   462    1
  1022   462   457    1
  1023   158   214    1
  1024   476   373    1
  1025   902   958    1
  1026   214   209    1
  1027   228   125    1
  1028   958   953    1
  1029   654   710    1
  1030   972   869    1
  1031   477   378    1
  1032   710   705    1
  1033   724   621    1
  1034   229   130    1
  1035   973   874    1
  1036   725   626    1
  1037   386   452    1
  1038   138   204    1
  1039   882   948    1
  1040   388   459    1
  1041   634   700    1
  1042   384   450    1
  1043   140   211    1
  1044   136   202    1
  1045   884   955    1
  1046   880   946    1
  1047   636   707    1
  1048   632   698    1
  1049   373   490    1
  1050   373   492    1
  1051   125   242    1
  1052   125   244    1
  1053   869   986    1
  1054   869   988    1
  1055   378   485    1
  1056   378   483    1
  1057   621   738    1
  1058   621   740    1
  1059   130   237    1
  1060   130   235    1
  1061   874   981    1
  1062   874   979    1
  1063   626   733    1
  1064   626   731    1
  1065   457   948    2
  1066   209   700    2
  1067   459   202    2
  1068   955   698    2
