@<TRIPOS>MOLECULE
frame0004
 1536 1744 0 0 0
SMALL
NO_CHARGES

@<TRIPOS>ATOM
      1 Ti1         -2.8554     2.2298    11.2464 Ti        1 MOL       0.0000
      2 Ti2          7.9750     5.1110     1.8816 Ti        1 MOL       0.0000
      3 Ti3          1.2412    -1.7064     9.4264 Ti        1 MOL       0.0000
      4 Ti4          2.7524     7.4557     3.6534 Ti        1 MOL       0.0000
      5 Ti5          1.7539     9.1340     1.7490 Ti        1 MOL       0.0000
      6 Ti6          3.1294    -1.9608    11.3798 Ti        1 MOL       0.0000
      7 Ti7         -1.9062     0.4939     9.3549 Ti        1 MOL       0.0000
      8 Ti8          5.9872     5.4135     3.7290 Ti        1 MOL       0.0000
      9 H1          -2.3536     6.1269    11.0269 H         1 MOL       0.0000
     10 H2           8.7838     1.2049     2.2023 H         1 MOL       0.0000
     11 H3          -6.8153     1.4731    10.8640 H         1 MOL       0.0000
     12 H4          11.3572     7.1153     2.0822 H         1 MOL       0.0000
     13 H5           4.1051    -5.9953    10.9939 H         1 MOL       0.0000
     14 H6          -2.3047     8.5441     2.0711 H         1 MOL       0.0000
     15 H7          -2.3867     0.4312    12.9709 H         1 MOL       0.0000
     16 H8           6.0995     4.8683     0.1817 H         1 MOL       0.0000
     17 H9           3.6394    -2.6279     5.8687 H         1 MOL       0.0000
     18 H10          1.0290     9.2927     7.2723 H         1 MOL       0.0000
     19 H11         -5.9789     3.8825     8.9990 H         1 MOL       0.0000
     20 H12         10.7298     3.0266     4.1876 H         1 MOL       0.0000
     21 H13         -3.6778     2.4351     5.6652 H         1 MOL       0.0000
     22 H14         -1.3462    10.9619     4.1022 H         1 MOL       0.0000
     23 H15          2.1461    12.2368     2.6045 H         1 MOL       0.0000
     24 H16          8.6260    -0.8139     3.4048 H         1 MOL       0.0000
     25 H17          4.8451     7.1358     2.3148 H         1 MOL       0.0000
     26 H18          0.1606     0.1420    10.7200 H         1 MOL       0.0000
     27 H19          7.3642    -0.0259     9.7695 H         1 MOL       0.0000
     28 H20          5.8831    -0.4950    10.5168 H         1 MOL       0.0000
     29 H21          7.9383     4.4077     8.6706 H         1 MOL       0.0000
     30 H22          7.3686     4.7663     7.0520 H         1 MOL       0.0000
     31 H23          6.8754    -4.9808     9.5794 H         1 MOL       0.0000
     32 H24          5.5962    -3.8802    10.0368 H         1 MOL       0.0000
     33 C1           8.5531     4.3697     4.7451 C         1 MOL       0.0000
     34 C2          -3.8160     2.4911     8.3994 C         1 MOL       0.0000
     35 C3           3.8218    -2.7171     8.5017 C         1 MOL       0.0000
     36 C4           0.8163     9.4262     4.6128 C         1 MOL       0.0000
     37 C5           9.4491     3.7654     5.7403 C         1 MOL       0.0000
     38 C6          -4.7479     3.1162     7.4223 C         1 MOL       0.0000
     39 C7           4.7619    -3.3315     7.5545 C         1 MOL       0.0000
     40 C8          -0.0735    10.0730     5.6125 C         1 MOL       0.0000
     41 C9           9.2003     3.8403     7.1467 C         1 MOL       0.0000
     42 C10         -4.5315     2.9962     6.0343 C         1 MOL       0.0000
     43 C11          5.8914    -4.0918     8.0076 C         1 MOL       0.0000
     44 C12         -1.1682    10.8460     5.1676 C         1 MOL       0.0000
     45 C13          0.1810     9.9023     6.9674 C         1 MOL       0.0000
     46 C14          4.5142    -3.1993     6.1706 C         1 MOL       0.0000
     47 C15         10.5828     3.0664     5.2646 C         1 MOL       0.0000
     48 C16         -5.8480     3.8086     7.9210 C         1 MOL       0.0000
     49 C17          8.7648     1.2840     0.0582 C         1 MOL       0.0000
     50 C18          2.2951    13.0756     0.0832 C         1 MOL       0.0000
     51 C19          6.6143    -0.0189    13.0272 C         1 MOL       0.0000
     52 C20         -6.7440     1.5235    13.0078 C         1 MOL       0.0000
     53 C21          3.4992     5.1125     5.6180 C         1 MOL       0.0000
     54 C22         -1.2569    -1.9819     7.5361 C         1 MOL       0.0000
     55 C23          3.9940    -4.3272    13.1300 C         1 MOL       0.0000
     56 C24          2.2024    11.6421     0.0457 C         1 MOL       0.0000
     57 C25          5.3165    -0.6357    13.0740 C         1 MOL       0.0000
     58 C26         -5.3417     1.9379    13.0323 C         1 MOL       0.0000
     59 C27          8.8042     0.6149     1.2879 C         1 MOL       0.0000
     60 C28         -2.3426     6.7153    11.9408 C         1 MOL       0.0000
     61 C29         -4.0954     7.8789     1.0761 C         1 MOL       0.0000
     62 C30         -7.3768     1.2938    11.7793 C         1 MOL       0.0000
     63 C31          7.3089     0.2494    11.7938 C         1 MOL       0.0000
     64 C32         -2.8062     8.3591     1.1253 C         1 MOL       0.0000
     65 C33          4.1467    -6.5225    11.9429 C         1 MOL       0.0000
     66 C34          8.8259    -0.7862     1.3695 C         1 MOL       0.0000
     67 N1           8.8810    -1.3851     2.6076 N         1 MOL       0.0000
     68 N2           6.7299     0.0665    10.5548 N         1 MOL       0.0000
     69 N3           8.1195     4.4866     7.6780 N         1 MOL       0.0000
     70 N4           6.2224    -4.2500     9.3250 N         1 MOL       0.0000
     71 O1           7.3768     4.7748     5.1109 O         1 MOL       0.0000
     72 O2          -3.0470     1.5403     8.0011 O         1 MOL       0.0000
     73 O3           4.2032    -2.5927     9.7228 O         1 MOL       0.0000
     74 O4           0.7505     9.8559     3.4131 O         1 MOL       0.0000
     75 O5           1.5868     8.4690     4.9992 O         1 MOL       0.0000
     76 O6           2.6513    -2.3487     8.0962 O         1 MOL       0.0000
     77 O7           8.9650     4.4505     3.5334 O         1 MOL       0.0000
     78 O8          -3.8580     2.9274     9.5991 O         1 MOL       0.0000
     79 O9           6.2924     4.1956     2.5344 O         1 MOL       0.0000
     80 O10         -1.3538     2.0542    10.0994 O         1 MOL       0.0000
     81 O11          7.2312     6.4829     2.9843 O         1 MOL       0.0000
     82 O12         -3.1060     0.3295    10.5921 O         1 MOL       0.0000
     83 O13          1.5006    -2.8784    10.6868 O         1 MOL       0.0000
     84 O14          3.2690     9.0170     2.9149 O         1 MOL       0.0000
     85 O15          2.4545    -0.6169    10.2227 O         1 MOL       0.0000
     86 O16          1.5628     7.2599     2.3975 O         1 MOL       0.0000
     87 O17          4.7203     4.9326     5.2637 O         1 MOL       0.0000
     88 O18         -1.9146    -0.9469     7.9143 O         1 MOL       0.0000
     89 O19          3.8718    -3.7326    11.9889 O         1 MOL       0.0000
     90 O20          2.1193    10.9406     1.1409 O         1 MOL       0.0000
     91 O21          4.6739    -0.9445    11.9838 O         1 MOL       0.0000
     92 O22         -0.1167     9.1049     1.0808 O         1 MOL       0.0000
     93 O23         -0.0951    -2.2764     7.9939 O         1 MOL       0.0000
     94 O24          2.7573     6.0334     5.1246 O         1 MOL       0.0000
     95 O25          9.4121     6.1301     1.1270 O         1 MOL       0.0000
     96 O26         -4.7422     2.1697    11.9148 O         1 MOL       0.0000
     97 O27          8.6166     3.3758     1.1564 O         1 MOL       0.0000
     98 O28         -2.4740     3.9521    11.9961 O         1 MOL       0.0000
     99 O29          4.4842     6.5871     3.0354 O         1 MOL       0.0000
    100 O30         -0.2177    -0.4167    10.0165 O         1 MOL       0.0000
    101 O31          6.9383     5.3620     0.1026 O         1 MOL       0.0000
    102 O32         -2.2643     1.3980    13.0309 O         1 MOL       0.0000
    103 H25          3.7002     1.4616     8.5208 H         1 MOL       0.0000
    104 H26         -6.6049    10.6145     6.1099 H         1 MOL       0.0000
    105 H27          4.4541    10.2148     5.5814 H         1 MOL       0.0000
    106 H28          4.6977     3.0058     6.8045 H         1 MOL       0.0000
    107 H29          0.0422     3.7275     8.4313 H         1 MOL       0.0000
    108 H30         12.1305    -2.6509     7.0132 H         1 MOL       0.0000
    109 H31          1.3730     1.8295     9.2950 H         1 MOL       0.0000
    110 H32          1.0411     5.2686     6.7093 H         1 MOL       0.0000
    111 H33          5.7898     8.4451     4.4647 H         1 MOL       0.0000
    112 H34          8.2453     8.3507     4.7500 H         1 MOL       0.0000
    113 C35          2.9224     4.2182     6.6499 C         1 MOL       0.0000
    114 C36          1.8124     2.5043     8.5622 C         1 MOL       0.0000
    115 C37          6.2880     9.1856     5.0894 C         1 MOL       0.0000
    116 C38         -1.9135    -2.9467     6.6205 C         1 MOL       0.0000
    117 C39          1.6080     4.4301     7.1094 C         1 MOL       0.0000
    118 C40          3.1261     2.2959     8.1201 C         1 MOL       0.0000
    119 C41          5.5355    10.1919     5.7071 C         1 MOL       0.0000
    120 C42         -7.6809    10.6464     5.9511 C         1 MOL       0.0000
    121 C43          7.6779     9.1363     5.2467 C         1 MOL       0.0000
    122 C44         12.6922    -3.4470     6.5298 C         1 MOL       0.0000
    123 C45          3.6821     3.1509     7.1676 C         1 MOL       0.0000
    124 C46          1.0567     3.5748     8.0649 C         1 MOL       0.0000
    125 N5           5.6046    10.9218     1.2804 N         1 MOL       0.0000
    126 N6           2.1342     2.7712    12.8697 N         1 MOL       0.0000
    127 C47          5.3742    11.5264     0.0531 C         1 MOL       0.0000
    128 C48          1.4468     3.7704    12.2028 C         1 MOL       0.0000
    129 C49          4.3963     2.7168    11.8718 C         1 MOL       0.0000
    130 C50          5.1440    11.4530     2.5785 C         1 MOL       0.0000
    131 C51          6.4864     9.9223     1.0898 C         1 MOL       0.0000
    132 C52          3.1679     1.9053    12.2741 C         1 MOL       0.0000
    133 H35          0.1507     5.3638    13.0528 H         1 MOL       0.0000
    134 H36          1.5180     3.9111    11.1319 H         1 MOL       0.0000
    135 H37          4.1344     3.5129    11.1631 H         1 MOL       0.0000
    136 H38          4.7452    12.4623     2.4351 H         1 MOL       0.0000
    137 H39          4.8620     3.1875    12.7445 H         1 MOL       0.0000
    138 H40          4.4574    10.7624     3.0472 H         1 MOL       0.0000
    139 H41          5.1321     2.0559    11.3963 H         1 MOL       0.0000
    140 H42          2.7248     1.3863    11.4158 H         1 MOL       0.0000
    141 H43          5.9897    11.5511     3.2600 H         1 MOL       0.0000
    142 H44          6.9616     9.3344     1.8641 H         1 MOL       0.0000
    143 H45          3.4042     1.1451    13.0263 H         1 MOL       0.0000
    144 N7          13.6059    -0.2349     0.2640 N         1 MOL       0.0000
    145 C53          0.4105     0.3313     1.6943 C         1 MOL       0.0000
    146 C54          9.6321    -5.8089    11.1323 C         1 MOL       0.0000
    147 O33         13.7889    -0.5894     2.7577 O         1 MOL       0.0000
    148 O34          8.3279    12.0770     1.1723 O         1 MOL       0.0000
    149 O35          1.3166     6.8261    11.0193 O         1 MOL       0.0000
    150 O36          3.8251     5.9097    11.1687 O         1 MOL       0.0000
    151 F1           0.1517     1.8176     1.9588 F         1 MOL       0.0000
    152 F2          10.7100    -5.0257    11.7944 F         1 MOL       0.0000
    153 F3           1.2003     0.3605     0.5610 F         1 MOL       0.0000
    154 F4           0.4148    -0.1330     3.2290 F         1 MOL       0.0000
    155 F5           8.6767    -4.9104    11.0820 F         1 MOL       0.0000
    156 F6           3.2542     8.6999     9.4023 F         1 MOL       0.0000
    157 S1          14.3712    -1.0628     1.4539 S         1 MOL       0.0000
    158 S2           2.6068     6.9908    11.6059 S         1 MOL       0.0000
    159 N8           3.0187     1.4194     3.1171 N         1 MOL       0.0000
    160 N9           1.1159     2.0752     4.0127 N         1 MOL       0.0000
    161 C55          4.0144     1.1314     2.0603 C         1 MOL       0.0000
    162 C56          1.9339     2.1951     2.9371 C         1 MOL       0.0000
    163 C57          2.9530     0.8785     4.3911 C         1 MOL       0.0000
    164 C58          3.7903    -0.2138     1.3702 C         1 MOL       0.0000
    165 C59          1.7662     1.2768     4.9443 C         1 MOL       0.0000
    166 C60         -0.3096     2.4650     4.1038 C         1 MOL       0.0000
    167 H46          4.9827     1.1602     2.5688 H         1 MOL       0.0000
    168 H47          3.9817     1.9643     1.3445 H         1 MOL       0.0000
    169 H48          1.6818     2.6331     1.9762 H         1 MOL       0.0000
    170 H49          4.6280    -0.4380     0.6987 H         1 MOL       0.0000
    171 H50          3.7851     0.3148     4.7803 H         1 MOL       0.0000
    172 H51         -0.4258     3.1672     4.9285 H         1 MOL       0.0000
    173 H52         -0.6126     2.9568     3.1748 H         1 MOL       0.0000
    174 H53          3.6662    -1.0352     2.0860 H         1 MOL       0.0000
    175 H54          1.3397     1.0746     5.9164 H         1 MOL       0.0000
    176 H55          2.9123    -0.1965     0.7264 H         1 MOL       0.0000
    177 H56         -0.9670     1.5866     4.2155 H         1 MOL       0.0000
    178 N10         -0.5590     0.5308     1.4668 N         1 MOL       0.0000
    179 C61          7.6634    12.5791     2.7846 C         1 MOL       0.0000
    180 C62          9.7365    -6.6613    12.2529 C         1 MOL       0.0000
    181 O37          0.2517     2.8039     0.3650 O         1 MOL       0.0000
    182 O38          1.2606    -1.4586     2.9006 O         1 MOL       0.0000
    183 O39         -3.7008    -6.3065    12.1346 O         1 MOL       0.0000
    184 O40          9.7864    12.1500     0.6989 O         1 MOL       0.0000
    185 F7          13.9313    -1.5971     4.1474 F         1 MOL       0.0000
    186 F8           8.5302    -5.9884    12.8623 F         1 MOL       0.0000
    187 F9           6.5838    12.7989     1.8008 F         1 MOL       0.0000
    188 F10          7.6332    11.2084     3.0659 F         1 MOL       0.0000
    189 F11         10.2616    -6.2833    10.8280 F         1 MOL       0.0000
    190 F12          3.0566     6.2236    12.1915 F         1 MOL       0.0000
    191 S3           0.0095     1.3566     0.0974 S         1 MOL       0.0000
    192 S4          -6.5476    13.4851     1.8844 S         1 MOL       0.0000
    193 Ti9         -7.4904    -4.8362    24.3414 Ti        1 MOL       0.0000
    194 Ti10         3.3400    -1.9550    14.9766 Ti        1 MOL       0.0000
    195 Ti11        -3.3938    -8.7724    22.5214 Ti        1 MOL       0.0000
    196 Ti12        -1.8826     0.3897    16.7484 Ti        1 MOL       0.0000
    197 Ti13        -2.8811     2.0680    14.8440 Ti        1 MOL       0.0000
    198 Ti14        -1.5056    -9.0268    24.4748 Ti        1 MOL       0.0000
    199 Ti15        -6.5412    -6.5721    22.4499 Ti        1 MOL       0.0000
    200 Ti16         1.3522    -1.6525    16.8240 Ti        1 MOL       0.0000
    201 H57         -6.9886    -0.9391    24.1219 H         1 MOL       0.0000
    202 H58          4.1488    -5.8611    15.2973 H         1 MOL       0.0000
    203 H59        -11.4503    -5.5929    23.9590 H         1 MOL       0.0000
    204 H60          6.7222     0.0493    15.1772 H         1 MOL       0.0000
    205 H61         -0.5299   -13.0613    24.0889 H         1 MOL       0.0000
    206 H62         -6.9397     1.4781    15.1661 H         1 MOL       0.0000
    207 H63         -7.0217    -6.6348    26.0659 H         1 MOL       0.0000
    208 H64          1.4645    -2.1977    13.2767 H         1 MOL       0.0000
    209 H65         -0.9956    -9.6939    18.9637 H         1 MOL       0.0000
    210 H66         -3.6060     2.2267    20.3673 H         1 MOL       0.0000
    211 H67        -10.6139    -3.1835    22.0940 H         1 MOL       0.0000
    212 H68          6.0948    -4.0393    17.2826 H         1 MOL       0.0000
    213 H69         -8.3127    -4.6309    18.7602 H         1 MOL       0.0000
    214 H70         -5.9812     3.8959    17.1972 H         1 MOL       0.0000
    215 H71         -2.4889     5.1708    15.6995 H         1 MOL       0.0000
    216 H72          3.9910    -7.8799    16.4998 H         1 MOL       0.0000
    217 H73          0.2101     0.0698    15.4098 H         1 MOL       0.0000
    218 H74         -4.4744    -6.9240    23.8150 H         1 MOL       0.0000
    219 H75          2.7292    -7.0919    22.8645 H         1 MOL       0.0000
    220 H76          1.2481    -7.5610    23.6118 H         1 MOL       0.0000
    221 H77          3.3033    -2.6583    21.7655 H         1 MOL       0.0000
    222 H78          2.7336    -2.2997    20.1470 H         1 MOL       0.0000
    223 H79          2.2404   -12.0468    22.6744 H         1 MOL       0.0000
    224 H80          0.9612   -10.9462    23.1318 H         1 MOL       0.0000
    225 C63          3.9181    -2.6963    17.8401 C         1 MOL       0.0000
    226 C64         -8.4510    -4.5749    21.4944 C         1 MOL       0.0000
    227 C65         -0.8132    -9.7831    21.5967 C         1 MOL       0.0000
    228 C66         -3.8187     2.3602    17.7078 C         1 MOL       0.0000
    229 C67          4.8141    -3.3006    18.8353 C         1 MOL       0.0000
    230 C68         -9.3829    -3.9498    20.5173 C         1 MOL       0.0000
    231 C69          0.1269   -10.3975    20.6495 C         1 MOL       0.0000
    232 C70         -4.7085     3.0070    18.7075 C         1 MOL       0.0000
    233 C71          4.5653    -3.2257    20.2417 C         1 MOL       0.0000
    234 C72         -9.1665    -4.0698    19.1293 C         1 MOL       0.0000
    235 C73          1.2564   -11.1578    21.1026 C         1 MOL       0.0000
    236 C74         -5.8032     3.7800    18.2626 C         1 MOL       0.0000
    237 C75         -4.4540     2.8362    20.0624 C         1 MOL       0.0000
    238 C76         -0.1208   -10.2653    19.2656 C         1 MOL       0.0000
    239 C77          5.9478    -3.9996    18.3596 C         1 MOL       0.0000
    240 C78        -10.4831    -3.2574    21.0160 C         1 MOL       0.0000
    241 C79          4.1298    -5.7820    13.1532 C         1 MOL       0.0000
    242 C80         -2.3399     6.0096    13.1782 C         1 MOL       0.0000
    243 C81          1.9793    -7.0849    26.1222 C         1 MOL       0.0000
    244 C82        -11.3790    -5.5425    26.1028 C         1 MOL       0.0000
    245 C83         -1.1358    -1.9535    18.7130 C         1 MOL       0.0000
    246 C84         -5.8919    -9.0479    20.6311 C         1 MOL       0.0000
    247 C85         -0.6410   -11.3932    26.2250 C         1 MOL       0.0000
    248 C86         -2.4326     4.5761    13.1407 C         1 MOL       0.0000
    249 C87          0.6815    -7.7017    26.1690 C         1 MOL       0.0000
    250 C88         -9.9767    -5.1281    26.1273 C         1 MOL       0.0000
    251 C89          4.1692    -6.4511    14.3829 C         1 MOL       0.0000
    252 C90         -6.9776    -0.3507    25.0358 C         1 MOL       0.0000
    253 C91         -8.7304     0.8129    14.1711 C         1 MOL       0.0000
    254 C92        -12.0118    -5.7722    24.8743 C         1 MOL       0.0000
    255 C93          2.6739    -6.8166    24.8888 C         1 MOL       0.0000
    256 C94         -7.4412     1.2931    14.2203 C         1 MOL       0.0000
    257 C95         -0.4883   -13.5885    25.0379 C         1 MOL       0.0000
    258 C96          4.1909    -7.8522    14.4645 C         1 MOL       0.0000
    259 N11          4.2460    -8.4511    15.7026 N         1 MOL       0.0000
    260 N12          2.0949    -6.9995    23.6498 N         1 MOL       0.0000
    261 N13          3.4845    -2.5794    20.7730 N         1 MOL       0.0000
    262 N14          1.5874   -11.3160    22.4200 N         1 MOL       0.0000
    263 O41          2.7418    -2.2912    18.2059 O         1 MOL       0.0000
    264 O42         -7.6820    -5.5257    21.0961 O         1 MOL       0.0000
    265 O43         -0.4318    -9.6587    22.8178 O         1 MOL       0.0000
    266 O44         -3.8845     2.7899    16.5082 O         1 MOL       0.0000
    267 O45         -3.0482     1.4030    18.0942 O         1 MOL       0.0000
    268 O46         -1.9837    -9.4147    21.1912 O         1 MOL       0.0000
    269 O47          4.3300    -2.6155    16.6284 O         1 MOL       0.0000
    270 O48         -8.4930    -4.1386    22.6941 O         1 MOL       0.0000
    271 O49          1.6574    -2.8704    15.6294 O         1 MOL       0.0000
    272 O50         -5.9888    -5.0118    23.1944 O         1 MOL       0.0000
    273 O51          2.5962    -0.5831    16.0793 O         1 MOL       0.0000
    274 O52         -7.7410    -6.7365    23.6871 O         1 MOL       0.0000
    275 O53         -3.1344    -9.9444    23.7818 O         1 MOL       0.0000
    276 O54         -1.3660     1.9510    16.0099 O         1 MOL       0.0000
    277 O55         -2.1805    -7.6829    23.3177 O         1 MOL       0.0000
    278 O56         -3.0722     0.1939    15.4925 O         1 MOL       0.0000
    279 O57          0.0853    -2.1334    18.3587 O         1 MOL       0.0000
    280 O58         -6.5496    -8.0129    21.0093 O         1 MOL       0.0000
    281 O59         -0.7632   -10.7986    25.0839 O         1 MOL       0.0000
    282 O60         -2.5157     3.8746    14.2359 O         1 MOL       0.0000
    283 O61          0.0389    -8.0105    25.0788 O         1 MOL       0.0000
    284 O62         -4.7517     2.0389    14.1758 O         1 MOL       0.0000
    285 O63         -4.7301    -9.3424    21.0889 O         1 MOL       0.0000
    286 O64         -1.8777    -1.0326    18.2196 O         1 MOL       0.0000
    287 O65          4.7771    -0.9359    14.2220 O         1 MOL       0.0000
    288 O66         -9.3772    -4.8963    25.0098 O         1 MOL       0.0000
    289 O67          3.9816    -3.6902    14.2514 O         1 MOL       0.0000
    290 O68         -7.1090    -3.1139    25.0911 O         1 MOL       0.0000
    291 O69         -0.1508    -0.4789    16.1304 O         1 MOL       0.0000
    292 O70         -4.8527    -7.4827    23.1115 O         1 MOL       0.0000
    293 O71          2.3033    -1.7041    13.1976 O         1 MOL       0.0000
    294 O72         -6.8993    -5.6680    26.1259 O         1 MOL       0.0000
    295 H81         -0.9348    -5.6044    21.6158 H         1 MOL       0.0000
    296 H82        -11.2399     3.5485    19.2049 H         1 MOL       0.0000
    297 H83         -0.1809     3.1488    18.6764 H         1 MOL       0.0000
    298 H84          0.0627    -4.0602    19.8995 H         1 MOL       0.0000
    299 H85         -4.5928    -3.3385    21.5263 H         1 MOL       0.0000
    300 H86          7.4955    -9.7169    20.1082 H         1 MOL       0.0000
    301 H87         -3.2620    -5.2365    22.3900 H         1 MOL       0.0000
    302 H88         -3.5939    -1.7974    19.8043 H         1 MOL       0.0000
    303 H89          1.1548     1.3791    17.5597 H         1 MOL       0.0000
    304 H90          3.6103     1.2847    17.8450 H         1 MOL       0.0000
    305 C97         -1.7126    -2.8478    19.7449 C         1 MOL       0.0000
    306 C98         -2.8226    -4.5617    21.6572 C         1 MOL       0.0000
    307 C99          1.6530     2.1196    18.1844 C         1 MOL       0.0000
    308 C100        -6.5485   -10.0127    19.7155 C         1 MOL       0.0000
    309 C101        -3.0270    -2.6359    20.2044 C         1 MOL       0.0000
    310 C102        -1.5089    -4.7701    21.2151 C         1 MOL       0.0000
    311 C103         0.9005     3.1259    18.8021 C         1 MOL       0.0000
    312 C104       -12.3159     3.5804    19.0461 C         1 MOL       0.0000
    313 C105         3.0429     2.0703    18.3417 C         1 MOL       0.0000
    314 C106         8.0572   -10.5130    19.6248 C         1 MOL       0.0000
    315 C107        -0.9529    -3.9151    20.2626 C         1 MOL       0.0000
    316 C108        -3.5783    -3.4912    21.1599 C         1 MOL       0.0000
    317 N15          0.9696     3.8558    14.3754 N         1 MOL       0.0000
    318 N16         -2.5008    -4.2948    25.9647 N         1 MOL       0.0000
    319 C109         0.7392     4.4604    13.1481 C         1 MOL       0.0000
    320 C110        -3.1882    -3.2956    25.2978 C         1 MOL       0.0000
    321 C111        -0.2387    -4.3492    24.9668 C         1 MOL       0.0000
    322 C112         0.5090     4.3870    15.6735 C         1 MOL       0.0000
    323 C113         1.8514     2.8563    14.1848 C         1 MOL       0.0000
    324 C114        -1.4671    -5.1607    25.3691 C         1 MOL       0.0000
    325 H91         -4.4843    -1.7022    26.1478 H         1 MOL       0.0000
    326 H92         -3.1170    -3.1549    24.2269 H         1 MOL       0.0000
    327 H93         -0.5006    -3.5531    24.2581 H         1 MOL       0.0000
    328 H94          0.1102     5.3963    15.5301 H         1 MOL       0.0000
    329 H95          0.2270    -3.8785    25.8395 H         1 MOL       0.0000
    330 H96         -0.1776     3.6964    16.1422 H         1 MOL       0.0000
    331 H97          0.4971    -5.0101    24.4913 H         1 MOL       0.0000
    332 H98         -1.9102    -5.6797    24.5108 H         1 MOL       0.0000
    333 H99          1.3547     4.4851    16.3550 H         1 MOL       0.0000
    334 H100         2.3266     2.2684    14.9591 H         1 MOL       0.0000
    335 H101        -1.2308    -5.9209    26.1213 H         1 MOL       0.0000
    336 N17          8.9709    -7.3009    13.3590 N         1 MOL       0.0000
    337 C115        -4.2245    -6.7347    14.7893 C         1 MOL       0.0000
    338 C116         4.9971   -12.8749    24.2273 C         1 MOL       0.0000
    339 O73          9.1539    -7.6554    15.8527 O         1 MOL       0.0000
    340 O74          3.6929     5.0110    14.2673 O         1 MOL       0.0000
    341 O75         -3.3184    -0.2399    24.1143 O         1 MOL       0.0000
    342 O76         -0.8099    -1.1563    24.2637 O         1 MOL       0.0000
    343 F13         -4.4833    -5.2484    15.0538 F         1 MOL       0.0000
    344 F14          6.0750   -12.0917    24.8894 F         1 MOL       0.0000
    345 F15         -3.4347    -6.7055    13.6560 F         1 MOL       0.0000
    346 F16         -4.2202    -7.1990    16.3240 F         1 MOL       0.0000
    347 F17          4.0417   -11.9764    24.1770 F         1 MOL       0.0000
    348 F18         -1.3808     1.6339    22.4973 F         1 MOL       0.0000
    349 S5           9.7362    -8.1288    14.5489 S         1 MOL       0.0000
    350 S6          -2.0282    -0.0752    24.7009 S         1 MOL       0.0000
    351 N18         -1.6163    -5.6466    16.2121 N         1 MOL       0.0000
    352 N19         -3.5191    -4.9908    17.1077 N         1 MOL       0.0000
    353 C117        -0.6206    -5.9346    15.1553 C         1 MOL       0.0000
    354 C118        -2.7011    -4.8709    16.0321 C         1 MOL       0.0000
    355 C119        -1.6820    -6.1875    17.4861 C         1 MOL       0.0000
    356 C120        -0.8447    -7.2798    14.4652 C         1 MOL       0.0000
    357 C121        -2.8688    -5.7892    18.0393 C         1 MOL       0.0000
    358 C122        -4.9446    -4.6010    17.1988 C         1 MOL       0.0000
    359 H102         0.3477    -5.9058    15.6638 H         1 MOL       0.0000
    360 H103        -0.6533    -5.1017    14.4395 H         1 MOL       0.0000
    361 H104        -2.9532    -4.4329    15.0712 H         1 MOL       0.0000
    362 H105        -0.0070    -7.5040    13.7937 H         1 MOL       0.0000
    363 H106        -0.8499    -6.7512    17.8753 H         1 MOL       0.0000
    364 H107        -5.0608    -3.8988    18.0235 H         1 MOL       0.0000
    365 H108        -5.2476    -4.1092    16.2698 H         1 MOL       0.0000
    366 H109        -0.9688    -8.1012    15.1810 H         1 MOL       0.0000
    367 H110        -3.2953    -5.9914    19.0114 H         1 MOL       0.0000
    368 H111        -1.7227    -7.2625    13.8214 H         1 MOL       0.0000
    369 H112        -5.6020    -5.4794    17.3105 H         1 MOL       0.0000
    370 N20         -5.1940    -6.5352    14.5618 N         1 MOL       0.0000
    371 C123         3.0284     5.5131    15.8796 C         1 MOL       0.0000
    372 C124         5.1015   -13.7273    25.3479 C         1 MOL       0.0000
    373 O77         -4.3833    -4.2621    13.4600 O         1 MOL       0.0000
    374 O78         -3.3744    -8.5246    15.9956 O         1 MOL       0.0000
    375 O79         -8.3358   -13.3725    25.2296 O         1 MOL       0.0000
    376 O80          5.1514     5.0840    13.7939 O         1 MOL       0.0000
    377 F19          9.2963    -8.6631    17.2424 F         1 MOL       0.0000
    378 F20          3.8952   -13.0544    25.9573 F         1 MOL       0.0000
    379 F21          1.9488     5.7329    14.8958 F         1 MOL       0.0000
    380 F22          2.9982     4.1424    16.1609 F         1 MOL       0.0000
    381 F23          5.6266   -13.3493    23.9230 F         1 MOL       0.0000
    382 F24         -1.5784    -0.8424    25.2865 F         1 MOL       0.0000
    383 S7          -4.6255    -5.7094    13.1924 S         1 MOL       0.0000
    384 S8         -11.1826     6.4191    14.9794 S         1 MOL       0.0000
    385 Ti17        -9.3724    16.8428    11.1894 Ti        1 MOL       0.0000
    386 Ti18         1.4580    19.7240     1.8246 Ti        1 MOL       0.0000
    387 Ti19        -5.2758    12.9066     9.3694 Ti        1 MOL       0.0000
    388 Ti20        -3.7646    22.0687     3.5964 Ti        1 MOL       0.0000
    389 Ti21        -4.7631    23.7470     1.6920 Ti        1 MOL       0.0000
    390 Ti22        -3.3876    12.6522    11.3228 Ti        1 MOL       0.0000
    391 Ti23        -8.4232    15.1069     9.2979 Ti        1 MOL       0.0000
    392 Ti24        -0.5298    20.0265     3.6721 Ti        1 MOL       0.0000
    393 H113        -8.8706    20.7399    10.9699 H         1 MOL       0.0000
    394 H114         2.2668    15.8179     2.1453 H         1 MOL       0.0000
    395 H115       -13.3323    16.0861    10.8070 H         1 MOL       0.0000
    396 H116         4.8402    21.7283     2.0252 H         1 MOL       0.0000
    397 H117        -2.4119     8.6177    10.9369 H         1 MOL       0.0000
    398 H118        -8.8217    23.1571     2.0141 H         1 MOL       0.0000
    399 H119        -8.9037    15.0442    12.9139 H         1 MOL       0.0000
    400 H120        -0.4175    19.4813     0.1247 H         1 MOL       0.0000
    401 H121        -2.8776    11.9851     5.8117 H         1 MOL       0.0000
    402 H122        -5.4880    23.9057     7.2153 H         1 MOL       0.0000
    403 H123       -12.4959    18.4955     8.9420 H         1 MOL       0.0000
    404 H124         4.2128    17.6396     4.1306 H         1 MOL       0.0000
    405 H125       -10.1948    17.0481     5.6082 H         1 MOL       0.0000
    406 H126        -7.8632    25.5749     4.0452 H         1 MOL       0.0000
    407 H127        -4.3709    26.8498     2.5475 H         1 MOL       0.0000
    408 H128         2.1090    13.7991     3.3478 H         1 MOL       0.0000
    409 H129        -1.6719    21.7488     2.2578 H         1 MOL       0.0000
    410 H130        -6.3565    14.7550    10.6630 H         1 MOL       0.0000
    411 H131         0.8472    14.5871     9.7125 H         1 MOL       0.0000
    412 H132        -0.6339    14.1180    10.4598 H         1 MOL       0.0000
    413 H133         1.4213    19.0207     8.6136 H         1 MOL       0.0000
    414 H134         0.8516    19.3793     6.9950 H         1 MOL       0.0000
    415 H135         0.3584     9.6322     9.5224 H         1 MOL       0.0000
    416 H136        -0.9208    10.7328     9.9798 H         1 MOL       0.0000
    417 C125         2.0361    18.9827     4.6881 C         1 MOL       0.0000
    418 C126       -10.3330    17.1042     8.3424 C         1 MOL       0.0000
    419 C127        -2.6952    11.8959     8.4447 C         1 MOL       0.0000
    420 C128        -5.7007    24.0392     4.5557 C         1 MOL       0.0000
    421 C129         2.9321    18.3784     5.6833 C         1 MOL       0.0000
    422 C130       -11.2649    17.7292     7.3653 C         1 MOL       0.0000
    423 C131        -1.7550    11.2815     7.4975 C         1 MOL       0.0000
    424 C132        -6.5905    24.6860     5.5555 C         1 MOL       0.0000
    425 C133         2.6833    18.4533     7.0897 C         1 MOL       0.0000
    426 C134       -11.0485    17.6092     5.9773 C         1 MOL       0.0000
    427 C135        -0.6256    10.5212     7.9506 C         1 MOL       0.0000
    428 C136        -7.6852    25.4590     5.1106 C         1 MOL       0.0000
    429 C137        -6.3360    24.5152     6.9104 C         1 MOL       0.0000
    430 C138        -2.0028    11.4136     6.1136 C         1 MOL       0.0000
    431 C139         4.0658    17.6794     5.2076 C         1 MOL       0.0000
    432 C140       -12.3651    18.4216     7.8640 C         1 MOL       0.0000
    433 C141         2.2478    15.8970     0.0012 C         1 MOL       0.0000
    434 C142        -4.2219    27.6886     0.0262 C         1 MOL       0.0000
    435 C143         0.0973    14.5941    12.9702 C         1 MOL       0.0000
    436 C144       -13.2610    16.1365    12.9508 C         1 MOL       0.0000
    437 C145        -3.0178    19.7255     5.5610 C         1 MOL       0.0000
    438 C146        -7.7739    12.6311     7.4791 C         1 MOL       0.0000
    439 C147        -2.5230    10.2858    13.0730 C         1 MOL       0.0000
    440 C148        -4.3146    26.2551    -0.0113 C         1 MOL       0.0000
    441 C149        -1.2006    13.9773    13.0170 C         1 MOL       0.0000
    442 C150       -11.8587    16.5509    12.9753 C         1 MOL       0.0000
    443 C151         2.2872    15.2279     1.2309 C         1 MOL       0.0000
    444 C152        -8.8596    21.3283    11.8838 C         1 MOL       0.0000
    445 C153       -10.6124    22.4919     1.0191 C         1 MOL       0.0000
    446 C154       -13.8938    15.9068    11.7223 C         1 MOL       0.0000
    447 C155         0.7919    14.8624    11.7368 C         1 MOL       0.0000
    448 C156        -9.3232    22.9721     1.0683 C         1 MOL       0.0000
    449 C157        -2.3703     8.0905    11.8859 C         1 MOL       0.0000
    450 C158         2.3089    13.8268     1.3125 C         1 MOL       0.0000
    451 N21          2.3640    13.2279     2.5506 N         1 MOL       0.0000
    452 N22          0.2129    14.6795    10.4978 N         1 MOL       0.0000
    453 N23          1.6025    19.0996     7.6210 N         1 MOL       0.0000
    454 N24         -0.2946    10.3630     9.2680 N         1 MOL       0.0000
    455 O81          0.8598    19.3878     5.0539 O         1 MOL       0.0000
    456 O82         -9.5640    16.1533     7.9441 O         1 MOL       0.0000
    457 O83         -2.3138    12.0203     9.6658 O         1 MOL       0.0000
    458 O84         -5.7665    24.4689     3.3561 O         1 MOL       0.0000
    459 O85         -4.9302    23.0820     4.9422 O         1 MOL       0.0000
    460 O86         -3.8657    12.2643     8.0392 O         1 MOL       0.0000
    461 O87          2.4480    19.0635     3.4764 O         1 MOL       0.0000
    462 O88        -10.3750    17.5404     9.5421 O         1 MOL       0.0000
    463 O89         -0.2246    18.8086     2.4774 O         1 MOL       0.0000
    464 O90         -7.8708    16.6672    10.0424 O         1 MOL       0.0000
    465 O91          0.7142    21.0959     2.9273 O         1 MOL       0.0000
    466 O92         -9.6230    14.9425    10.5351 O         1 MOL       0.0000
    467 O93         -5.0164    11.7346    10.6298 O         1 MOL       0.0000
    468 O94         -3.2480    23.6300     2.8579 O         1 MOL       0.0000
    469 O95         -4.0625    13.9961    10.1657 O         1 MOL       0.0000
    470 O96         -4.9542    21.8729     2.3405 O         1 MOL       0.0000
    471 O97         -1.7967    19.5457     5.2067 O         1 MOL       0.0000
    472 O98         -8.4316    13.6661     7.8573 O         1 MOL       0.0000
    473 O99         -2.6452    10.8804    11.9319 O         1 MOL       0.0000
    474 O100        -4.3977    25.5536     1.0839 O         1 MOL       0.0000
    475 O101        -1.8431    13.6685    11.9268 O         1 MOL       0.0000
    476 O102        -6.6337    23.7179     1.0238 O         1 MOL       0.0000
    477 O103        -6.6121    12.3366     7.9369 O         1 MOL       0.0000
    478 O104        -3.7597    20.6464     5.0676 O         1 MOL       0.0000
    479 O105         2.8951    20.7431     1.0700 O         1 MOL       0.0000
    480 O106       -11.2592    16.7827    11.8578 O         1 MOL       0.0000
    481 O107         2.0995    17.9888     1.0994 O         1 MOL       0.0000
    482 O108        -8.9910    18.5650    11.9391 O         1 MOL       0.0000
    483 O109        -2.0328    21.2001     2.9784 O         1 MOL       0.0000
    484 O110        -6.7347    14.1963     9.9595 O         1 MOL       0.0000
    485 O111         0.4213    19.9749     0.0456 O         1 MOL       0.0000
    486 O112        -8.7813    16.0110    12.9739 O         1 MOL       0.0000
    487 H137        -2.8168    16.0746     8.4638 H         1 MOL       0.0000
    488 H138       -13.1219    25.2275     6.0529 H         1 MOL       0.0000
    489 H139        -2.0629    24.8278     5.5244 H         1 MOL       0.0000
    490 H140        -1.8193    17.6188     6.7475 H         1 MOL       0.0000
    491 H141        -6.4748    18.3405     8.3743 H         1 MOL       0.0000
    492 H142         5.6135    11.9621     6.9562 H         1 MOL       0.0000
    493 H143        -5.1440    16.4425     9.2380 H         1 MOL       0.0000
    494 H144        -5.4759    19.8816     6.6523 H         1 MOL       0.0000
    495 H145        -0.7272    23.0581     4.4077 H         1 MOL       0.0000
    496 H146         1.7283    22.9637     4.6930 H         1 MOL       0.0000
    497 C159        -3.5946    18.8312     6.5929 C         1 MOL       0.0000
    498 C160        -4.7046    17.1173     8.5052 C         1 MOL       0.0000
    499 C161        -0.2290    23.7986     5.0324 C         1 MOL       0.0000
    500 C162        -8.4305    11.6663     6.5635 C         1 MOL       0.0000
    501 C163        -4.9090    19.0431     7.0524 C         1 MOL       0.0000
    502 C164        -3.3909    16.9089     8.0631 C         1 MOL       0.0000
    503 C165        -0.9815    24.8049     5.6501 C         1 MOL       0.0000
    504 C166       -14.1979    25.2594     5.8941 C         1 MOL       0.0000
    505 C167         1.1609    23.7493     5.1897 C         1 MOL       0.0000
    506 C168         6.1752    11.1660     6.4728 C         1 MOL       0.0000
    507 C169        -2.8349    17.7639     7.1106 C         1 MOL       0.0000
    508 C170        -5.4603    18.1878     8.0079 C         1 MOL       0.0000
    509 N25         -0.9124    25.5348     1.2234 N         1 MOL       0.0000
    510 N26         -4.3828    17.3842    12.8127 N         1 MOL       0.0000
    511 C171        -1.1428    26.1394    -0.0039 C         1 MOL       0.0000
    512 C172        -5.0702    18.3834    12.1458 C         1 MOL       0.0000
    513 C173        -2.1207    17.3298    11.8148 C         1 MOL       0.0000
    514 C174        -1.3730    26.0660     2.5215 C         1 MOL       0.0000
    515 C175        -0.0306    24.5353     1.0328 C         1 MOL       0.0000
    516 C176        -3.3491    16.5183    12.2171 C         1 MOL       0.0000
    517 H147        -6.3663    19.9768    12.9958 H         1 MOL       0.0000
    518 H148        -4.9990    18.5241    11.0749 H         1 MOL       0.0000
    519 H149        -2.3826    18.1259    11.1061 H         1 MOL       0.0000
    520 H150        -1.7718    27.0753     2.3781 H         1 MOL       0.0000
    521 H151        -1.6550    17.8005    12.6875 H         1 MOL       0.0000
    522 H152        -2.0596    25.3754     2.9902 H         1 MOL       0.0000
    523 H153        -1.3849    16.6689    11.3393 H         1 MOL       0.0000
    524 H154        -3.7922    15.9993    11.3588 H         1 MOL       0.0000
    525 H155        -0.5273    26.1641     3.2030 H         1 MOL       0.0000
    526 H156         0.4446    23.9474     1.8071 H         1 MOL       0.0000
    527 H157        -3.1128    15.7581    12.9693 H         1 MOL       0.0000
    528 N27          7.0889    14.3781     0.2070 N         1 MOL       0.0000
    529 C177        -6.1065    14.9443     1.6373 C         1 MOL       0.0000
    530 C178         3.1151     8.8041    11.0753 C         1 MOL       0.0000
    531 O113         7.2719    14.0236     2.7007 O         1 MOL       0.0000
    532 O114         1.8109    26.6900     1.1153 O         1 MOL       0.0000
    533 O115        -5.2004    21.4391    10.9623 O         1 MOL       0.0000
    534 O116        -2.6919    20.5227    11.1117 O         1 MOL       0.0000
    535 F25         -6.3653    16.4306     1.9018 F         1 MOL       0.0000
    536 F26          4.1930     9.5873    11.7374 F         1 MOL       0.0000
    537 F27         -5.3167    14.9735     0.5040 F         1 MOL       0.0000
    538 F28         -6.1022    14.4800     3.1720 F         1 MOL       0.0000
    539 F29          2.1597     9.7026    11.0250 F         1 MOL       0.0000
    540 F30         -3.2628    23.3129     9.3453 F         1 MOL       0.0000
    541 S9           7.8542    13.5502     1.3969 S         1 MOL       0.0000
    542 S10         -3.9102    21.6038    11.5489 S         1 MOL       0.0000
    543 N28         -3.4983    16.0324     3.0601 N         1 MOL       0.0000
    544 N29         -5.4011    16.6882     3.9557 N         1 MOL       0.0000
    545 C179        -2.5026    15.7444     2.0033 C         1 MOL       0.0000
    546 C180        -4.5831    16.8081     2.8801 C         1 MOL       0.0000
    547 C181        -3.5640    15.4915     4.3341 C         1 MOL       0.0000
    548 C182        -2.7267    14.3992     1.3132 C         1 MOL       0.0000
    549 C183        -4.7508    15.8898     4.8873 C         1 MOL       0.0000
    550 C184        -6.8266    17.0780     4.0468 C         1 MOL       0.0000
    551 H158        -1.5343    15.7732     2.5118 H         1 MOL       0.0000
    552 H159        -2.5353    16.5773     1.2875 H         1 MOL       0.0000
    553 H160        -4.8352    17.2461     1.9192 H         1 MOL       0.0000
    554 H161        -1.8890    14.1750     0.6417 H         1 MOL       0.0000
    555 H162        -2.7319    14.9278     4.7233 H         1 MOL       0.0000
    556 H163        -6.9428    17.7802     4.8715 H         1 MOL       0.0000
    557 H164        -7.1296    17.5698     3.1178 H         1 MOL       0.0000
    558 H165        -2.8508    13.5778     2.0290 H         1 MOL       0.0000
    559 H166        -5.1773    15.6876     5.8594 H         1 MOL       0.0000
    560 H167        -3.6047    14.4165     0.6694 H         1 MOL       0.0000
    561 H168        -7.4840    16.1996     4.1585 H         1 MOL       0.0000
    562 N30         -7.0760    15.1438     1.4098 N         1 MOL       0.0000
    563 C185         1.1464    27.1921     2.7276 C         1 MOL       0.0000
    564 C186         3.2195     7.9517    12.1959 C         1 MOL       0.0000
    565 O117        -6.2653    17.4169     0.3080 O         1 MOL       0.0000
    566 O118        -5.2564    13.1544     2.8436 O         1 MOL       0.0000
    567 O119       -10.2178     8.3065    12.0776 O         1 MOL       0.0000
    568 O120         3.2694    26.7630     0.6419 O         1 MOL       0.0000
    569 F31          7.4143    13.0159     4.0904 F         1 MOL       0.0000
    570 F32          2.0132     8.6246    12.8053 F         1 MOL       0.0000
    571 F33          0.0668    27.4119     1.7438 F         1 MOL       0.0000
    572 F34          1.1162    25.8214     3.0089 F         1 MOL       0.0000
    573 F35          3.7446     8.3297    10.7710 F         1 MOL       0.0000
    574 F36         -3.4604    20.8366    12.1345 F         1 MOL       0.0000
    575 S11         -6.5075    15.9696     0.0404 S         1 MOL       0.0000
    576 S12        -13.0646    28.0981     1.8274 S         1 MOL       0.0000
    577 Ti25       -14.0074     9.7768    24.2844 Ti        1 MOL       0.0000
    578 Ti26        -3.1770    12.6580    14.9196 Ti        1 MOL       0.0000
    579 Ti27        -9.9108     5.8406    22.4644 Ti        1 MOL       0.0000
    580 Ti28        -8.3996    15.0027    16.6914 Ti        1 MOL       0.0000
    581 Ti29        -9.3981    16.6810    14.7870 Ti        1 MOL       0.0000
    582 Ti30        -8.0226     5.5862    24.4178 Ti        1 MOL       0.0000
    583 Ti31       -13.0582     8.0409    22.3929 Ti        1 MOL       0.0000
    584 Ti32        -5.1648    12.9605    16.7671 Ti        1 MOL       0.0000
    585 H169       -13.5056    13.6739    24.0649 H         1 MOL       0.0000
    586 H170        -2.3682     8.7519    15.2403 H         1 MOL       0.0000
    587 H171       -17.9673     9.0201    23.9020 H         1 MOL       0.0000
    588 H172         0.2052    14.6623    15.1202 H         1 MOL       0.0000
    589 H173        -7.0469     1.5517    24.0319 H         1 MOL       0.0000
    590 H174       -13.4567    16.0911    15.1091 H         1 MOL       0.0000
    591 H175       -13.5387     7.9782    26.0089 H         1 MOL       0.0000
    592 H176        -5.0525    12.4153    13.2196 H         1 MOL       0.0000
    593 H177        -7.5126     4.9191    18.9067 H         1 MOL       0.0000
    594 H178       -10.1230    16.8397    20.3103 H         1 MOL       0.0000
    595 H179       -17.1309    11.4295    22.0370 H         1 MOL       0.0000
    596 H180        -0.4222    10.5736    17.2256 H         1 MOL       0.0000
    597 H181       -14.8298     9.9821    18.7032 H         1 MOL       0.0000
    598 H182       -12.4982    18.5089    17.1402 H         1 MOL       0.0000
    599 H183        -9.0059    19.7838    15.6425 H         1 MOL       0.0000
    600 H184        -2.5260     6.7331    16.4428 H         1 MOL       0.0000
    601 H185        -6.3069    14.6828    15.3528 H         1 MOL       0.0000
    602 H186       -10.9915     7.6890    23.7580 H         1 MOL       0.0000
    603 H187        -3.7878     7.5211    22.8075 H         1 MOL       0.0000
    604 H188        -5.2689     7.0520    23.5548 H         1 MOL       0.0000
    605 H189        -3.2137    11.9547    21.7085 H         1 MOL       0.0000
    606 H190        -3.7834    12.3133    20.0900 H         1 MOL       0.0000
    607 H191        -4.2766     2.5662    22.6174 H         1 MOL       0.0000
    608 H192        -5.5558     3.6668    23.0748 H         1 MOL       0.0000
    609 C187        -2.5989    11.9167    17.7831 C         1 MOL       0.0000
    610 C188       -14.9680    10.0381    21.4374 C         1 MOL       0.0000
    611 C189        -7.3302     4.8299    21.5397 C         1 MOL       0.0000
    612 C190       -10.3357    16.9732    17.6507 C         1 MOL       0.0000
    613 C191        -1.7029    11.3124    18.7783 C         1 MOL       0.0000
    614 C192       -15.8999    10.6632    20.4603 C         1 MOL       0.0000
    615 C193        -6.3900     4.2155    20.5925 C         1 MOL       0.0000
    616 C194       -11.2255    17.6200    18.6505 C         1 MOL       0.0000
    617 C195        -1.9517    11.3873    20.1847 C         1 MOL       0.0000
    618 C196       -15.6835    10.5432    19.0723 C         1 MOL       0.0000
    619 C197        -5.2606     3.4552    21.0456 C         1 MOL       0.0000
    620 C198       -12.3202    18.3930    18.2056 C         1 MOL       0.0000
    621 C199       -10.9710    17.4492    20.0054 C         1 MOL       0.0000
    622 C200        -6.6378     4.3476    19.2086 C         1 MOL       0.0000
    623 C201        -0.5692    10.6134    18.3026 C         1 MOL       0.0000
    624 C202       -17.0001    11.3556    20.9590 C         1 MOL       0.0000
    625 C203        -2.3872     8.8310    13.0962 C         1 MOL       0.0000
    626 C204        -8.8569    20.6226    13.1212 C         1 MOL       0.0000
    627 C205        -4.5377     7.5281    26.0652 C         1 MOL       0.0000
    628 C206       -17.8960     9.0705    26.0458 C         1 MOL       0.0000
    629 C207        -7.6528    12.6595    18.6560 C         1 MOL       0.0000
    630 C208       -12.4089     5.5651    20.5741 C         1 MOL       0.0000
    631 C209        -7.1580     3.2199    26.1680 C         1 MOL       0.0000
    632 C210        -8.9496    19.1891    13.0837 C         1 MOL       0.0000
    633 C211        -5.8355     6.9113    26.1120 C         1 MOL       0.0000
    634 C212       -16.4937     9.4849    26.0703 C         1 MOL       0.0000
    635 C213        -2.3478     8.1619    14.3259 C         1 MOL       0.0000
    636 C214       -13.4946    14.2623    24.9788 C         1 MOL       0.0000
    637 C215       -15.2474    15.4259    14.1141 C         1 MOL       0.0000
    638 C216       -18.5288     8.8408    24.8173 C         1 MOL       0.0000
    639 C217        -3.8431     7.7964    24.8318 C         1 MOL       0.0000
    640 C218       -13.9582    15.9061    14.1633 C         1 MOL       0.0000
    641 C219        -7.0053     1.0245    24.9809 C         1 MOL       0.0000
    642 C220        -2.3261     6.7608    14.4075 C         1 MOL       0.0000
    643 N31         -2.2710     6.1619    15.6456 N         1 MOL       0.0000
    644 N32         -4.4221     7.6135    23.5928 N         1 MOL       0.0000
    645 N33         -3.0325    12.0336    20.7160 N         1 MOL       0.0000
    646 N34         -4.9296     3.2970    22.3630 N         1 MOL       0.0000
    647 O121        -3.7752    12.3218    18.1489 O         1 MOL       0.0000
    648 O122       -14.1990     9.0873    21.0391 O         1 MOL       0.0000
    649 O123        -6.9488     4.9543    22.7608 O         1 MOL       0.0000
    650 O124       -10.4015    17.4029    16.4512 O         1 MOL       0.0000
    651 O125        -9.5652    16.0160    18.0372 O         1 MOL       0.0000
    652 O126        -8.5007     5.1983    21.1342 O         1 MOL       0.0000
    653 O127        -2.1870    11.9975    16.5714 O         1 MOL       0.0000
    654 O128       -15.0100    10.4744    22.6371 O         1 MOL       0.0000
    655 O129        -4.8596    11.7426    15.5724 O         1 MOL       0.0000
    656 O130       -12.5058     9.6012    23.1374 O         1 MOL       0.0000
    657 O131        -3.9208    14.0299    16.0223 O         1 MOL       0.0000
    658 O132       -14.2580     7.8765    23.6301 O         1 MOL       0.0000
    659 O133        -9.6515     4.6686    23.7248 O         1 MOL       0.0000
    660 O134        -7.8830    16.5640    15.9529 O         1 MOL       0.0000
    661 O135        -8.6975     6.9301    23.2607 O         1 MOL       0.0000
    662 O136        -9.5892    14.8069    15.4355 O         1 MOL       0.0000
    663 O137        -6.4317    12.4797    18.3017 O         1 MOL       0.0000
    664 O138       -13.0666     6.6001    20.9523 O         1 MOL       0.0000
    665 O139        -7.2802     3.8144    25.0269 O         1 MOL       0.0000
    666 O140        -9.0327    18.4876    14.1789 O         1 MOL       0.0000
    667 O141        -6.4781     6.6025    25.0218 O         1 MOL       0.0000
    668 O142       -11.2687    16.6519    14.1188 O         1 MOL       0.0000
    669 O143       -11.2471     5.2706    21.0319 O         1 MOL       0.0000
    670 O144        -8.3947    13.5804    18.1626 O         1 MOL       0.0000
    671 O145        -1.7399    13.6771    14.1650 O         1 MOL       0.0000
    672 O146       -15.8942     9.7167    24.9528 O         1 MOL       0.0000
    673 O147        -2.5355    10.9228    14.1944 O         1 MOL       0.0000
    674 O148       -13.6260    11.4990    25.0341 O         1 MOL       0.0000
    675 O149        -6.6678    14.1341    16.0734 O         1 MOL       0.0000
    676 O150       -11.3697     7.1303    23.0545 O         1 MOL       0.0000
    677 O151        -4.2137    12.9089    13.1406 O         1 MOL       0.0000
    678 O152       -13.4163     8.9450    26.0689 O         1 MOL       0.0000
    679 H193        -7.4518     9.0086    21.5588 H         1 MOL       0.0000
    680 H194       -17.7569    18.1615    19.1479 H         1 MOL       0.0000
    681 H195        -6.6979    17.7618    18.6194 H         1 MOL       0.0000
    682 H196        -6.4543    10.5528    19.8425 H         1 MOL       0.0000
    683 H197       -11.1098    11.2745    21.4693 H         1 MOL       0.0000
    684 H198         0.9785     4.8961    20.0512 H         1 MOL       0.0000
    685 H199        -9.7790     9.3765    22.3330 H         1 MOL       0.0000
    686 H200       -10.1109    12.8156    19.7473 H         1 MOL       0.0000
    687 H201        -5.3622    15.9921    17.5027 H         1 MOL       0.0000
    688 H202        -2.9067    15.8977    17.7880 H         1 MOL       0.0000
    689 C221        -8.2296    11.7652    19.6879 C         1 MOL       0.0000
    690 C222        -9.3396    10.0513    21.6002 C         1 MOL       0.0000
    691 C223        -4.8640    16.7326    18.1274 C         1 MOL       0.0000
    692 C224       -13.0655     4.6003    19.6585 C         1 MOL       0.0000
    693 C225        -9.5440    11.9771    20.1474 C         1 MOL       0.0000
    694 C226        -8.0259     9.8429    21.1581 C         1 MOL       0.0000
    695 C227        -5.6165    17.7389    18.7451 C         1 MOL       0.0000
    696 C228       -18.8329    18.1934    18.9891 C         1 MOL       0.0000
    697 C229        -3.4741    16.6833    18.2847 C         1 MOL       0.0000
    698 C230         1.5402     4.1000    19.5678 C         1 MOL       0.0000
    699 C231        -7.4699    10.6979    20.2056 C         1 MOL       0.0000
    700 C232       -10.0953    11.1218    21.1029 C         1 MOL       0.0000
    701 N35         -5.5474    18.4688    14.3184 N         1 MOL       0.0000
    702 N36         -9.0178    10.3182    25.9077 N         1 MOL       0.0000
    703 C233        -5.7778    19.0734    13.0911 C         1 MOL       0.0000
    704 C234        -9.7052    11.3174    25.2408 C         1 MOL       0.0000
    705 C235        -6.7557    10.2638    24.9098 C         1 MOL       0.0000
    706 C236        -6.0080    19.0000    15.6165 C         1 MOL       0.0000
    707 C237        -4.6656    17.4693    14.1278 C         1 MOL       0.0000
    708 C238        -7.9841     9.4523    25.3121 C         1 MOL       0.0000
    709 H203       -11.0013    12.9108    26.0908 H         1 MOL       0.0000
    710 H204        -9.6340    11.4581    24.1699 H         1 MOL       0.0000
    711 H205        -7.0176    11.0599    24.2011 H         1 MOL       0.0000
    712 H206        -6.4068    20.0093    15.4731 H         1 MOL       0.0000
    713 H207        -6.2900    10.7345    25.7825 H         1 MOL       0.0000
    714 H208        -6.6946    18.3094    16.0852 H         1 MOL       0.0000
    715 H209        -6.0199     9.6029    24.4343 H         1 MOL       0.0000
    716 H210        -8.4272     8.9333    24.4538 H         1 MOL       0.0000
    717 H211        -5.1623    19.0981    16.2980 H         1 MOL       0.0000
    718 H212        -4.1904    16.8814    14.9021 H         1 MOL       0.0000
    719 H213        -7.7478     8.6921    26.0643 H         1 MOL       0.0000
    720 N37          2.4539     7.3121    13.3020 N         1 MOL       0.0000
    721 C239       -10.7415     7.8783    14.7323 C         1 MOL       0.0000
    722 C240        -1.5199     1.7381    24.1703 C         1 MOL       0.0000
    723 O153         2.6369     6.9576    15.7957 O         1 MOL       0.0000
    724 O154        -2.8241    19.6240    14.2103 O         1 MOL       0.0000
    725 O155        -9.8354    14.3731    24.0573 O         1 MOL       0.0000
    726 O156        -7.3269    13.4567    24.2067 O         1 MOL       0.0000
    727 F37        -11.0003     9.3646    14.9968 F         1 MOL       0.0000
    728 F38         -0.4420     2.5213    24.8324 F         1 MOL       0.0000
    729 F39         -9.9517     7.9075    13.5990 F         1 MOL       0.0000
    730 F40        -10.7372     7.4140    16.2670 F         1 MOL       0.0000
    731 F41         -2.4753     2.6366    24.1200 F         1 MOL       0.0000
    732 F42         -7.8978    16.2469    22.4403 F         1 MOL       0.0000
    733 S13          3.2192     6.4842    14.4919 S         1 MOL       0.0000
    734 S14         -8.5452    14.5378    24.6439 S         1 MOL       0.0000
    735 N38         -8.1333     8.9664    16.1551 N         1 MOL       0.0000
    736 N39        -10.0361     9.6222    17.0507 N         1 MOL       0.0000
    737 C241        -7.1376     8.6784    15.0983 C         1 MOL       0.0000
    738 C242        -9.2181     9.7421    15.9751 C         1 MOL       0.0000
    739 C243        -8.1990     8.4255    17.4291 C         1 MOL       0.0000
    740 C244        -7.3617     7.3332    14.4082 C         1 MOL       0.0000
    741 C245        -9.3858     8.8238    17.9823 C         1 MOL       0.0000
    742 C246       -11.4616    10.0120    17.1418 C         1 MOL       0.0000
    743 H214        -6.1693     8.7072    15.6068 H         1 MOL       0.0000
    744 H215        -7.1703     9.5113    14.3825 H         1 MOL       0.0000
    745 H216        -9.4702    10.1801    15.0142 H         1 MOL       0.0000
    746 H217        -6.5240     7.1090    13.7367 H         1 MOL       0.0000
    747 H218        -7.3669     7.8618    17.8183 H         1 MOL       0.0000
    748 H219       -11.5778    10.7142    17.9665 H         1 MOL       0.0000
    749 H220       -11.7646    10.5038    16.2128 H         1 MOL       0.0000
    750 H221        -7.4858     6.5118    15.1240 H         1 MOL       0.0000
    751 H222        -9.8123     8.6216    18.9544 H         1 MOL       0.0000
    752 H223        -8.2397     7.3505    13.7644 H         1 MOL       0.0000
    753 H224       -12.1190     9.1336    17.2535 H         1 MOL       0.0000
    754 N40        -11.7110     8.0778    14.5048 N         1 MOL       0.0000
    755 C247        -3.4886    20.1261    15.8226 C         1 MOL       0.0000
    756 C248        -1.4155     0.8857    25.2909 C         1 MOL       0.0000
    757 O157       -10.9003    10.3509    13.4030 O         1 MOL       0.0000
    758 O158        -9.8914     6.0884    15.9386 O         1 MOL       0.0000
    759 O159       -14.8528     1.2405    25.1726 O         1 MOL       0.0000
    760 O160        -1.3656    19.6970    13.7369 O         1 MOL       0.0000
    761 F43          2.7793     5.9499    17.1854 F         1 MOL       0.0000
    762 F44         -2.6218     1.5586    25.9003 F         1 MOL       0.0000
    763 F45         -4.5682    20.3459    14.8388 F         1 MOL       0.0000
    764 F46         -3.5188    18.7554    16.1039 F         1 MOL       0.0000
    765 F47         -0.8904     1.2637    23.8660 F         1 MOL       0.0000
    766 F48         -8.0954    13.7706    25.2295 F         1 MOL       0.0000
    767 S15        -11.1425     8.9036    13.1354 S         1 MOL       0.0000
    768 S16        -17.6996    21.0321    14.9224 S         1 MOL       0.0000
    769 Ti33        13.1446     1.6728    11.3364 Ti        1 MOL       0.0000
    770 Ti34        23.9750     4.5540     1.9716 Ti        1 MOL       0.0000
    771 Ti35        17.2413    -2.2634     9.5164 Ti        1 MOL       0.0000
    772 Ti36        18.7524     6.8987     3.7434 Ti        1 MOL       0.0000
    773 Ti37        17.7539     8.5770     1.8390 Ti        1 MOL       0.0000
    774 Ti38        19.1295    -2.5178    11.4698 Ti        1 MOL       0.0000
    775 Ti39        14.0938    -0.0631     9.4449 Ti        1 MOL       0.0000
    776 Ti40        21.9872     4.8565     3.8191 Ti        1 MOL       0.0000
    777 H225        13.6464     5.5698    11.1169 H         1 MOL       0.0000
    778 H226        24.7838     0.6479     2.2923 H         1 MOL       0.0000
    779 H227         9.1847     0.9161    10.9540 H         1 MOL       0.0000
    780 H228        27.3572     6.5583     2.1722 H         1 MOL       0.0000
    781 H229        20.1051    -6.5523    11.0839 H         1 MOL       0.0000
    782 H230        13.6953     7.9871     2.1610 H         1 MOL       0.0000
    783 H231        13.6133    -0.1258    13.0609 H         1 MOL       0.0000
    784 H232        22.0995     4.3113     0.2717 H         1 MOL       0.0000
    785 H233        19.6394    -3.1849     5.9587 H         1 MOL       0.0000
    786 H234        17.0290     8.7357     7.3624 H         1 MOL       0.0000
    787 H235        10.0211     3.3255     9.0890 H         1 MOL       0.0000
    788 H236        26.7298     2.4697     4.2776 H         1 MOL       0.0000
    789 H237        12.3222     1.8781     5.7552 H         1 MOL       0.0000
    790 H238        14.6538    10.4049     4.1922 H         1 MOL       0.0000
    791 H239        18.1461    11.6798     2.6945 H         1 MOL       0.0000
    792 H240        24.6260    -1.3709     3.4948 H         1 MOL       0.0000
    793 H241        20.8451     6.5788     2.4048 H         1 MOL       0.0000
    794 H242        16.1605    -0.4150    10.8100 H         1 MOL       0.0000
    795 H243        23.3642    -0.5829     9.8595 H         1 MOL       0.0000
    796 H244        21.8831    -1.0520    10.6068 H         1 MOL       0.0000
    797 H245        23.9383     3.8507     8.7606 H         1 MOL       0.0000
    798 H246        23.3686     4.2093     7.1420 H         1 MOL       0.0000
    799 H247        22.8754    -5.5378     9.6694 H         1 MOL       0.0000
    800 H248        21.5962    -4.4372    10.1268 H         1 MOL       0.0000
    801 C249        24.5531     3.8127     4.8351 C         1 MOL       0.0000
    802 C250        12.1840     1.9341     8.4894 C         1 MOL       0.0000
    803 C251        19.8218    -3.2741     8.5917 C         1 MOL       0.0000
    804 C252        16.8163     8.8692     4.7027 C         1 MOL       0.0000
    805 C253        25.4491     3.2084     5.8303 C         1 MOL       0.0000
    806 C254        11.2521     2.5592     7.5123 C         1 MOL       0.0000
    807 C255        20.7620    -3.8885     7.6445 C         1 MOL       0.0000
    808 C256        15.9265     9.5160     5.7025 C         1 MOL       0.0000
    809 C257        25.2003     3.2833     7.2367 C         1 MOL       0.0000
    810 C258        11.4685     2.4392     6.1243 C         1 MOL       0.0000
    811 C259        21.8914    -4.6488     8.0976 C         1 MOL       0.0000
    812 C260        14.8318    10.2890     5.2576 C         1 MOL       0.0000
    813 C261        16.1810     9.3453     7.0574 C         1 MOL       0.0000
    814 C262        20.5142    -3.7563     6.2606 C         1 MOL       0.0000
    815 C263        26.5828     2.5094     5.3546 C         1 MOL       0.0000
    816 C264        10.1519     3.2516     8.0110 C         1 MOL       0.0000
    817 C265        24.7648     0.7270     0.1482 C         1 MOL       0.0000
    818 C266        18.2951    12.5186     0.1732 C         1 MOL       0.0000
    819 C267        22.6143    -0.5759    13.1172 C         1 MOL       0.0000
    820 C268         9.2560     0.9665    13.0978 C         1 MOL       0.0000
    821 C269        19.4992     4.5555     5.7080 C         1 MOL       0.0000
    822 C270        14.7431    -2.5389     7.6261 C         1 MOL       0.0000
    823 C271        19.9940    -4.8842    13.2200 C         1 MOL       0.0000
    824 C272        18.2024    11.0851     0.1357 C         1 MOL       0.0000
    825 C273        21.3164    -1.1927    13.1640 C         1 MOL       0.0000
    826 C274        10.6583     1.3809    13.1223 C         1 MOL       0.0000
    827 C275        24.8042     0.0579     1.3779 C         1 MOL       0.0000
    828 C276        13.6574     6.1583    12.0308 C         1 MOL       0.0000
    829 C277        11.9046     7.3219     1.1661 C         1 MOL       0.0000
    830 C278         8.6232     0.7368    11.8693 C         1 MOL       0.0000
    831 C279        23.3089    -0.3076    11.8838 C         1 MOL       0.0000
    832 C280        13.1938     7.8021     1.2153 C         1 MOL       0.0000
    833 C281        20.1467    -7.0795    12.0329 C         1 MOL       0.0000
    834 C282        24.8259    -1.3432     1.4595 C         1 MOL       0.0000
    835 N41         24.8809    -1.9421     2.6976 N         1 MOL       0.0000
    836 N42         22.7299    -0.4905    10.6448 N         1 MOL       0.0000
    837 N43         24.1195     3.9296     7.7680 N         1 MOL       0.0000
    838 N44         22.2224    -4.8070     9.4150 N         1 MOL       0.0000
    839 O161        23.3768     4.2178     5.2009 O         1 MOL       0.0000
    840 O162        12.9530     0.9833     8.0911 O         1 MOL       0.0000
    841 O163        20.2032    -3.1497     9.8128 O         1 MOL       0.0000
    842 O164        16.7505     9.2989     3.5031 O         1 MOL       0.0000
    843 O165        17.5868     7.9120     5.0892 O         1 MOL       0.0000
    844 O166        18.6513    -2.9057     8.1862 O         1 MOL       0.0000
    845 O167        24.9650     3.8935     3.6234 O         1 MOL       0.0000
    846 O168        12.1420     2.3704     9.6891 O         1 MOL       0.0000
    847 O169        22.2924     3.6386     2.6244 O         1 MOL       0.0000
    848 O170        14.6462     1.4972    10.1894 O         1 MOL       0.0000
    849 O171        23.2312     5.9259     3.0743 O         1 MOL       0.0000
    850 O172        12.8940    -0.2275    10.6821 O         1 MOL       0.0000
    851 O173        17.5006    -3.4354    10.7768 O         1 MOL       0.0000
    852 O174        19.2690     8.4600     3.0049 O         1 MOL       0.0000
    853 O175        18.4545    -1.1739    10.3127 O         1 MOL       0.0000
    854 O176        17.5628     6.7029     2.4875 O         1 MOL       0.0000
    855 O177        20.7203     4.3756     5.3537 O         1 MOL       0.0000
    856 O178        14.0854    -1.5039     8.0043 O         1 MOL       0.0000
    857 O179        19.8718    -4.2896    12.0789 O         1 MOL       0.0000
    858 O180        18.1193    10.3836     1.2309 O         1 MOL       0.0000
    859 O181        20.6739    -1.5015    12.0738 O         1 MOL       0.0000
    860 O182        15.8833     8.5479     1.1708 O         1 MOL       0.0000
    861 O183        15.9049    -2.8334     8.0839 O         1 MOL       0.0000
    862 O184        18.7573     5.4764     5.2146 O         1 MOL       0.0000
    863 O185        25.4121     5.5731     1.2170 O         1 MOL       0.0000
    864 O186        11.2578     1.6127    12.0048 O         1 MOL       0.0000
    865 O187        24.6166     2.8188     1.2464 O         1 MOL       0.0000
    866 O188        13.5260     3.3950    12.0861 O         1 MOL       0.0000
    867 O189        20.4842     6.0301     3.1254 O         1 MOL       0.0000
    868 O190        15.7823    -0.9737    10.1065 O         1 MOL       0.0000
    869 O191        22.9383     4.8049     0.1926 O         1 MOL       0.0000
    870 O192        13.7357     0.8410    13.1209 O         1 MOL       0.0000
    871 H249        19.7002     0.9046     8.6108 H         1 MOL       0.0000
    872 H250         9.3951    10.0575     6.1999 H         1 MOL       0.0000
    873 H251        20.4541     9.6578     5.6714 H         1 MOL       0.0000
    874 H252        20.6977     2.4488     6.8945 H         1 MOL       0.0000
    875 H253        16.0422     3.1705     8.5213 H         1 MOL       0.0000
    876 H254        28.1305    -3.2079     7.1032 H         1 MOL       0.0000
    877 H255        17.3730     1.2725     9.3850 H         1 MOL       0.0000
    878 H256        17.0411     4.7116     6.7993 H         1 MOL       0.0000
    879 H257        21.7898     7.8881     4.5547 H         1 MOL       0.0000
    880 H258        24.2453     7.7937     4.8400 H         1 MOL       0.0000
    881 C283        18.9224     3.6612     6.7399 C         1 MOL       0.0000
    882 C284        17.8124     1.9473     8.6522 C         1 MOL       0.0000
    883 C285        22.2880     8.6286     5.1794 C         1 MOL       0.0000
    884 C286        14.0865    -3.5037     6.7105 C         1 MOL       0.0000
    885 C287        17.6080     3.8731     7.1994 C         1 MOL       0.0000
    886 C288        19.1261     1.7389     8.2101 C         1 MOL       0.0000
    887 C289        21.5355     9.6349     5.7971 C         1 MOL       0.0000
    888 C290         8.3191    10.0894     6.0411 C         1 MOL       0.0000
    889 C291        23.6779     8.5793     5.3367 C         1 MOL       0.0000
    890 C292        28.6922    -4.0040     6.6198 C         1 MOL       0.0000
    891 C293        19.6821     2.5939     7.2576 C         1 MOL       0.0000
    892 C294        17.0567     3.0178     8.1549 C         1 MOL       0.0000
    893 N45         21.6046    10.3648     1.3704 N         1 MOL       0.0000
    894 N46         18.1342     2.2142    12.9597 N         1 MOL       0.0000
    895 C295        21.3742    10.9694     0.1431 C         1 MOL       0.0000
    896 C296        17.4468     3.2134    12.2928 C         1 MOL       0.0000
    897 C297        20.3963     2.1598    11.9618 C         1 MOL       0.0000
    898 C298        21.1440    10.8960     2.6685 C         1 MOL       0.0000
    899 C299        22.4864     9.3653     1.1798 C         1 MOL       0.0000
    900 C300        19.1679     1.3483    12.3641 C         1 MOL       0.0000
    901 H259        16.1507     4.8068    13.1428 H         1 MOL       0.0000
    902 H260        17.5180     3.3541    11.2219 H         1 MOL       0.0000
    903 H261        20.1344     2.9559    11.2531 H         1 MOL       0.0000
    904 H262        20.7452    11.9053     2.5251 H         1 MOL       0.0000
    905 H263        20.8620     2.6305    12.8345 H         1 MOL       0.0000
    906 H264        20.4574    10.2054     3.1372 H         1 MOL       0.0000
    907 H265        21.1321     1.4989    11.4863 H         1 MOL       0.0000
    908 H266        18.7248     0.8293    11.5058 H         1 MOL       0.0000
    909 H267        21.9897    10.9941     3.3500 H         1 MOL       0.0000
    910 H268        22.9616     8.7774     1.9541 H         1 MOL       0.0000
    911 H269        19.4042     0.5881    13.1163 H         1 MOL       0.0000
    912 N47         29.6059    -0.7919     0.3540 N         1 MOL       0.0000
    913 C301        16.4105    -0.2257     1.7843 C         1 MOL       0.0000
    914 C302        25.6321    -6.3659    11.2223 C         1 MOL       0.0000
    915 O193        29.7889    -1.1464     2.8477 O         1 MOL       0.0000
    916 O194        24.3279    11.5200     1.2623 O         1 MOL       0.0000
    917 O195        17.3166     6.2691    11.1093 O         1 MOL       0.0000
    918 O196        19.8251     5.3527    11.2587 O         1 MOL       0.0000
    919 F49         16.1517     1.2606     2.0488 F         1 MOL       0.0000
    920 F50         26.7100    -5.5827    11.8844 F         1 MOL       0.0000
    921 F51         17.2003    -0.1965     0.6510 F         1 MOL       0.0000
    922 F52         16.4148    -0.6900     3.3190 F         1 MOL       0.0000
    923 F53         24.6767    -5.4674    11.1720 F         1 MOL       0.0000
    924 F54         19.2542     8.1429     9.4923 F         1 MOL       0.0000
    925 S17         30.3712    -1.6198     1.5439 S         1 MOL       0.0000
    926 S18         18.6068     6.4338    11.6959 S         1 MOL       0.0000
    927 N48         19.0187     0.8624     3.2071 N         1 MOL       0.0000
    928 N49         17.1159     1.5182     4.1027 N         1 MOL       0.0000
    929 C303        20.0144     0.5744     2.1503 C         1 MOL       0.0000
    930 C304        17.9339     1.6381     3.0271 C         1 MOL       0.0000
    931 C305        18.9530     0.3215     4.4811 C         1 MOL       0.0000
    932 C306        19.7903    -0.7708     1.4602 C         1 MOL       0.0000
    933 C307        17.7662     0.7198     5.0343 C         1 MOL       0.0000
    934 C308        15.6904     1.9080     4.1938 C         1 MOL       0.0000
    935 H270        20.9827     0.6032     2.6588 H         1 MOL       0.0000
    936 H271        19.9817     1.4073     1.4345 H         1 MOL       0.0000
    937 H272        17.6818     2.0761     2.0662 H         1 MOL       0.0000
    938 H273        20.6280    -0.9950     0.7887 H         1 MOL       0.0000
    939 H274        19.7851    -0.2422     4.8703 H         1 MOL       0.0000
    940 H275        15.5742     2.6102     5.0185 H         1 MOL       0.0000
    941 H276        15.3874     2.3998     3.2648 H         1 MOL       0.0000
    942 H277        19.6662    -1.5922     2.1760 H         1 MOL       0.0000
    943 H278        17.3397     0.5176     6.0064 H         1 MOL       0.0000
    944 H279        18.9123    -0.7535     0.8164 H         1 MOL       0.0000
    945 H280        15.0330     1.0296     4.3055 H         1 MOL       0.0000
    946 N50         15.4410    -0.0262     1.5568 N         1 MOL       0.0000
    947 C309        23.6634    12.0221     2.8746 C         1 MOL       0.0000
    948 C310        25.7365    -7.2183    12.3429 C         1 MOL       0.0000
    949 O197        16.2517     2.2469     0.4550 O         1 MOL       0.0000
    950 O198        17.2606    -2.0156     2.9906 O         1 MOL       0.0000
    951 O199        12.2992    -6.8635    12.2246 O         1 MOL       0.0000
    952 O200        25.7864    11.5930     0.7889 O         1 MOL       0.0000
    953 F55         29.9313    -2.1541     4.2374 F         1 MOL       0.0000
    954 F56         24.5302    -6.5454    12.9523 F         1 MOL       0.0000
    955 F57         22.5838    12.2419     1.8908 F         1 MOL       0.0000
    956 F58         23.6332    10.6514     3.1559 F         1 MOL       0.0000
    957 F59         26.2616    -6.8403    10.9180 F         1 MOL       0.0000
    958 F60         19.0566     5.6666    12.2815 F         1 MOL       0.0000
    959 S19         16.0095     0.7996     0.1874 S         1 MOL       0.0000
    960 S20          9.4524    12.9281     1.9744 S         1 MOL       0.0000
    961 Ti41         8.5096    -5.3932    24.4314 Ti        1 MOL       0.0000
    962 Ti42        19.3400    -2.5120    15.0666 Ti        1 MOL       0.0000
    963 Ti43        12.6063    -9.3294    22.6114 Ti        1 MOL       0.0000
    964 Ti44        14.1174    -0.1673    16.8384 Ti        1 MOL       0.0000
    965 Ti45        13.1189     1.5110    14.9340 Ti        1 MOL       0.0000
    966 Ti46        14.4945    -9.5838    24.5648 Ti        1 MOL       0.0000
    967 Ti47         9.4588    -7.1291    22.5399 Ti        1 MOL       0.0000
    968 Ti48        17.3522    -2.2095    16.9140 Ti        1 MOL       0.0000
    969 H281         9.0114    -1.4961    24.2119 H         1 MOL       0.0000
    970 H282        20.1488    -6.4181    15.3873 H         1 MOL       0.0000
    971 H283         4.5497    -6.1499    24.0490 H         1 MOL       0.0000
    972 H284        22.7222    -0.5077    15.2672 H         1 MOL       0.0000
    973 H285        15.4701   -13.6183    24.1789 H         1 MOL       0.0000
    974 H286         9.0603     0.9211    15.2561 H         1 MOL       0.0000
    975 H287         8.9783    -7.1918    26.1559 H         1 MOL       0.0000
    976 H288        17.4645    -2.7547    13.3666 H         1 MOL       0.0000
    977 H289        15.0044   -10.2509    19.0537 H         1 MOL       0.0000
    978 H290        12.3940     1.6697    20.4573 H         1 MOL       0.0000
    979 H291         5.3861    -3.7405    22.1840 H         1 MOL       0.0000
    980 H292        22.0948    -4.5963    17.3726 H         1 MOL       0.0000
    981 H293         7.6872    -5.1879    18.8502 H         1 MOL       0.0000
    982 H294        10.0188     3.3389    17.2872 H         1 MOL       0.0000
    983 H295        13.5111     4.6138    15.7895 H         1 MOL       0.0000
    984 H296        19.9910    -8.4369    16.5898 H         1 MOL       0.0000
    985 H297        16.2101    -0.4872    15.4998 H         1 MOL       0.0000
    986 H298        11.5255    -7.4810    23.9050 H         1 MOL       0.0000
    987 H299        18.7292    -7.6489    22.9545 H         1 MOL       0.0000
    988 H300        17.2481    -8.1180    23.7018 H         1 MOL       0.0000
    989 H301        19.3033    -3.2153    21.8555 H         1 MOL       0.0000
    990 H302        18.7336    -2.8567    20.2370 H         1 MOL       0.0000
    991 H303        18.2404   -12.6038    22.7644 H         1 MOL       0.0000
    992 H304        16.9612   -11.5032    23.2218 H         1 MOL       0.0000
    993 C311        19.9181    -3.2533    17.9301 C         1 MOL       0.0000
    994 C312         7.5490    -5.1319    21.5844 C         1 MOL       0.0000
    995 C313        15.1867   -10.3401    21.6867 C         1 MOL       0.0000
    996 C314        12.1813     1.8032    17.7978 C         1 MOL       0.0000
    997 C315        20.8141    -3.8576    18.9253 C         1 MOL       0.0000
    998 C316         6.6171    -4.5068    20.6073 C         1 MOL       0.0000
    999 C317        16.1270   -10.9545    20.7395 C         1 MOL       0.0000
   1000 C318        11.2915     2.4500    18.7975 C         1 MOL       0.0000
   1001 C319        20.5653    -3.7827    20.3317 C         1 MOL       0.0000
   1002 C320         6.8335    -4.6268    19.2193 C         1 MOL       0.0000
   1003 C321        17.2564   -11.7148    21.1926 C         1 MOL       0.0000
   1004 C322        10.1968     3.2230    18.3526 C         1 MOL       0.0000
   1005 C323        11.5460     2.2792    20.1524 C         1 MOL       0.0000
   1006 C324        15.8792   -10.8223    19.3556 C         1 MOL       0.0000
   1007 C325        21.9478    -4.5566    18.4496 C         1 MOL       0.0000
   1008 C326         5.5170    -3.8144    21.1060 C         1 MOL       0.0000
   1009 C327        20.1298    -6.3390    13.2432 C         1 MOL       0.0000
   1010 C328        13.6601     5.4526    13.2682 C         1 MOL       0.0000
   1011 C329        17.9793    -7.6419    26.2122 C         1 MOL       0.0000
   1012 C330         4.6210    -6.0995    26.1928 C         1 MOL       0.0000
   1013 C331        14.8642    -2.5105    18.8030 C         1 MOL       0.0000
   1014 C332        10.1081    -9.6049    20.7211 C         1 MOL       0.0000
   1015 C333        15.3590   -11.9502    26.3150 C         1 MOL       0.0000
   1016 C334        13.5674     4.0191    13.2307 C         1 MOL       0.0000
   1017 C335        16.6814    -8.2587    26.2590 C         1 MOL       0.0000
   1018 C336         6.0233    -5.6851    26.2173 C         1 MOL       0.0000
   1019 C337        20.1692    -7.0081    14.4729 C         1 MOL       0.0000
   1020 C338         9.0224    -0.9077    25.1258 C         1 MOL       0.0000
   1021 C339         7.2696     0.2559    14.2611 C         1 MOL       0.0000
   1022 C340         3.9882    -6.3292    24.9643 C         1 MOL       0.0000
   1023 C341        18.6739    -7.3736    24.9788 C         1 MOL       0.0000
   1024 C342         8.5588     0.7361    14.3103 C         1 MOL       0.0000
   1025 C343        15.5117   -14.1455    25.1279 C         1 MOL       0.0000
   1026 C344        20.1909    -8.4092    14.5545 C         1 MOL       0.0000
   1027 N51         20.2459    -9.0081    15.7926 N         1 MOL       0.0000
   1028 N52         18.0949    -7.5564    23.7398 N         1 MOL       0.0000
   1029 N53         19.4844    -3.1364    20.8630 N         1 MOL       0.0000
   1030 N54         17.5874   -11.8730    22.5100 N         1 MOL       0.0000
   1031 O201        18.7418    -2.8482    18.2959 O         1 MOL       0.0000
   1032 O202         8.3180    -6.0827    21.1861 O         1 MOL       0.0000
   1033 O203        15.5682   -10.2157    22.9078 O         1 MOL       0.0000
   1034 O204        12.1155     2.2329    16.5982 O         1 MOL       0.0000
   1035 O205        12.9518     0.8460    18.1842 O         1 MOL       0.0000
   1036 O206        14.0163    -9.9717    21.2812 O         1 MOL       0.0000
   1037 O207        20.3300    -3.1725    16.7184 O         1 MOL       0.0000
   1038 O208         7.5070    -4.6956    22.7841 O         1 MOL       0.0000
   1039 O209        17.6574    -3.4274    15.7194 O         1 MOL       0.0000
   1040 O210        10.0112    -5.5688    23.2844 O         1 MOL       0.0000
   1041 O211        18.5962    -1.1401    16.1693 O         1 MOL       0.0000
   1042 O212         8.2590    -7.2935    23.7771 O         1 MOL       0.0000
   1043 O213        12.8655   -10.5014    23.8718 O         1 MOL       0.0000
   1044 O214        14.6340     1.3940    16.0999 O         1 MOL       0.0000
   1045 O215        13.8195    -8.2399    23.4077 O         1 MOL       0.0000
   1046 O216        12.9278    -0.3631    15.5825 O         1 MOL       0.0000
   1047 O217        16.0853    -2.6904    18.4487 O         1 MOL       0.0000
   1048 O218         9.4504    -8.5699    21.0993 O         1 MOL       0.0000
   1049 O219        15.2368   -11.3556    25.1739 O         1 MOL       0.0000
   1050 O220        13.4843     3.3176    14.3259 O         1 MOL       0.0000
   1051 O221        16.0389    -8.5675    25.1688 O         1 MOL       0.0000
   1052 O222        11.2483     1.4819    14.2658 O         1 MOL       0.0000
   1053 O223        11.2699    -9.8994    21.1789 O         1 MOL       0.0000
   1054 O224        14.1223    -1.5896    18.3096 O         1 MOL       0.0000
   1055 O225        20.7771    -1.4929    14.3120 O         1 MOL       0.0000
   1056 O226         6.6228    -5.4533    25.0998 O         1 MOL       0.0000
   1057 O227        19.9816    -4.2472    14.3414 O         1 MOL       0.0000
   1058 O228         8.8910    -3.6709    25.1811 O         1 MOL       0.0000
   1059 O229        15.8492    -1.0359    16.2204 O         1 MOL       0.0000
   1060 O230        11.1473    -8.0397    23.2015 O         1 MOL       0.0000
   1061 O231        18.3033    -2.2611    13.2876 O         1 MOL       0.0000
   1062 O232         9.1007    -6.2250    26.2159 O         1 MOL       0.0000
   1063 H305        15.0652    -6.1614    21.7058 H         1 MOL       0.0000
   1064 H306         4.7601     2.9915    19.2949 H         1 MOL       0.0000
   1065 H307        15.8191     2.5918    18.7664 H         1 MOL       0.0000
   1066 H308        16.0627    -4.6172    19.9895 H         1 MOL       0.0000
   1067 H309        11.4072    -3.8955    21.6163 H         1 MOL       0.0000
   1068 H310        23.4955   -10.2739    20.1982 H         1 MOL       0.0000
   1069 H311        12.7380    -5.7935    22.4800 H         1 MOL       0.0000
   1070 H312        12.4061    -2.3544    19.8943 H         1 MOL       0.0000
   1071 H313        17.1548     0.8221    17.6497 H         1 MOL       0.0000
   1072 H314        19.6103     0.7277    17.9350 H         1 MOL       0.0000
   1073 C345        14.2874    -3.4048    19.8349 C         1 MOL       0.0000
   1074 C346        13.1774    -5.1187    21.7472 C         1 MOL       0.0000
   1075 C347        17.6530     1.5626    18.2744 C         1 MOL       0.0000
   1076 C348         9.4515   -10.5697    19.8055 C         1 MOL       0.0000
   1077 C349        12.9730    -3.1929    20.2944 C         1 MOL       0.0000
   1078 C350        14.4911    -5.3271    21.3051 C         1 MOL       0.0000
   1079 C351        16.9005     2.5689    18.8921 C         1 MOL       0.0000
   1080 C352         3.6841     3.0234    19.1361 C         1 MOL       0.0000
   1081 C353        19.0429     1.5133    18.4317 C         1 MOL       0.0000
   1082 C354        24.0572   -11.0700    19.7148 C         1 MOL       0.0000
   1083 C355        15.0471    -4.4721    20.3526 C         1 MOL       0.0000
   1084 C356        12.4217    -4.0482    21.2499 C         1 MOL       0.0000
   1085 N55         16.9696     3.2988    14.4654 N         1 MOL       0.0000
   1086 N56         13.4992    -4.8518    26.0547 N         1 MOL       0.0000
   1087 C357        16.7392     3.9034    13.2381 C         1 MOL       0.0000
   1088 C358        12.8118    -3.8526    25.3878 C         1 MOL       0.0000
   1089 C359        15.7613    -4.9062    25.0568 C         1 MOL       0.0000
   1090 C360        16.5090     3.8300    15.7635 C         1 MOL       0.0000
   1091 C361        17.8514     2.2993    14.2748 C         1 MOL       0.0000
   1092 C362        14.5329    -5.7177    25.4591 C         1 MOL       0.0000
   1093 H315        11.5157    -2.2592    26.2378 H         1 MOL       0.0000
   1094 H316        12.8830    -3.7119    24.3169 H         1 MOL       0.0000
   1095 H317        15.4994    -4.1101    24.3481 H         1 MOL       0.0000
   1096 H318        16.1102     4.8393    15.6201 H         1 MOL       0.0000
   1097 H319        16.2270    -4.4355    25.9295 H         1 MOL       0.0000
   1098 H320        15.8224     3.1394    16.2322 H         1 MOL       0.0000
   1099 H321        16.4971    -5.5671    24.5813 H         1 MOL       0.0000
   1100 H322        14.0898    -6.2367    24.6008 H         1 MOL       0.0000
   1101 H323        17.3547     3.9281    16.4450 H         1 MOL       0.0000
   1102 H324        18.3266     1.7114    15.0491 H         1 MOL       0.0000
   1103 H325        14.7692    -6.4779    26.2113 H         1 MOL       0.0000
   1104 N57         24.9709    -7.8579    13.4490 N         1 MOL       0.0000
   1105 C363        11.7755    -7.2917    14.8793 C         1 MOL       0.0000
   1106 C364        20.9971   -13.4319    24.3173 C         1 MOL       0.0000
   1107 O233        25.1539    -8.2124    15.9427 O         1 MOL       0.0000
   1108 O234        19.6929     4.4540    14.3573 O         1 MOL       0.0000
   1109 O235        12.6816    -0.7969    24.2043 O         1 MOL       0.0000
   1110 O236        15.1901    -1.7133    24.3537 O         1 MOL       0.0000
   1111 F61         11.5167    -5.8054    15.1438 F         1 MOL       0.0000
   1112 F62         22.0750   -12.6487    24.9794 F         1 MOL       0.0000
   1113 F63         12.5653    -7.2625    13.7460 F         1 MOL       0.0000
   1114 F64         11.7798    -7.7560    16.4140 F         1 MOL       0.0000
   1115 F65         20.0417   -12.5334    24.2670 F         1 MOL       0.0000
   1116 F66         14.6192     1.0769    22.5873 F         1 MOL       0.0000
   1117 S21         25.7362    -8.6858    14.6389 S         1 MOL       0.0000
   1118 S22         13.9718    -0.6322    24.7909 S         1 MOL       0.0000
   1119 N58         14.3837    -6.2036    16.3021 N         1 MOL       0.0000
   1120 N59         12.4809    -5.5478    17.1977 N         1 MOL       0.0000
   1121 C365        15.3794    -6.4916    15.2453 C         1 MOL       0.0000
   1122 C366        13.2989    -5.4279    16.1221 C         1 MOL       0.0000
   1123 C367        14.3180    -6.7445    17.5761 C         1 MOL       0.0000
   1124 C368        15.1553    -7.8368    14.5552 C         1 MOL       0.0000
   1125 C369        13.1312    -6.3462    18.1293 C         1 MOL       0.0000
   1126 C370        11.0554    -5.1580    17.2888 C         1 MOL       0.0000
   1127 H326        16.3477    -6.4628    15.7538 H         1 MOL       0.0000
   1128 H327        15.3467    -5.6587    14.5295 H         1 MOL       0.0000
   1129 H328        13.0468    -4.9899    15.1612 H         1 MOL       0.0000
   1130 H329        15.9930    -8.0610    13.8837 H         1 MOL       0.0000
   1131 H330        15.1501    -7.3082    17.9653 H         1 MOL       0.0000
   1132 H331        10.9392    -4.4558    18.1135 H         1 MOL       0.0000
   1133 H332        10.7524    -4.6662    16.3598 H         1 MOL       0.0000
   1134 H333        15.0312    -8.6582    15.2710 H         1 MOL       0.0000
   1135 H334        12.7047    -6.5484    19.1014 H         1 MOL       0.0000
   1136 H335        14.2773    -7.8195    13.9114 H         1 MOL       0.0000
   1137 H336        10.3980    -6.0364    17.4005 H         1 MOL       0.0000
   1138 N60         10.8060    -7.0922    14.6518 N         1 MOL       0.0000
   1139 C371        19.0284     4.9561    15.9696 C         1 MOL       0.0000
   1140 C372        21.1015   -14.2843    25.4379 C         1 MOL       0.0000
   1141 O237        11.6167    -4.8191    13.5500 O         1 MOL       0.0000
   1142 O238        12.6256    -9.0816    16.0856 O         1 MOL       0.0000
   1143 O239         7.6642   -13.9295    25.3196 O         1 MOL       0.0000
   1144 O240        21.1514     4.5270    13.8839 O         1 MOL       0.0000
   1145 F67         25.2963    -9.2201    17.3324 F         1 MOL       0.0000
   1146 F68         19.8952   -13.6114    26.0473 F         1 MOL       0.0000
   1147 F69         17.9488     5.1759    14.9858 F         1 MOL       0.0000
   1148 F70         18.9982     3.5854    16.2509 F         1 MOL       0.0000
   1149 F71         21.6266   -13.9063    24.0130 F         1 MOL       0.0000
   1150 F72         14.4216    -1.3994    25.3765 F         1 MOL       0.0000
   1151 S23         11.3745    -6.2664    13.2824 S         1 MOL       0.0000
   1152 S24          4.8174     5.8621    15.0694 S         1 MOL       0.0000
   1153 Ti49         6.6276    16.2858    11.2794 Ti        1 MOL       0.0000
   1154 Ti50        17.4580    19.1670     1.9146 Ti        1 MOL       0.0000
   1155 Ti51        10.7242    12.3496     9.4594 Ti        1 MOL       0.0000
   1156 Ti52        12.2354    21.5117     3.6864 Ti        1 MOL       0.0000
   1157 Ti53        11.2369    23.1900     1.7820 Ti        1 MOL       0.0000
   1158 Ti54        12.6125    12.0952    11.4128 Ti        1 MOL       0.0000
   1159 Ti55         7.5768    14.5499     9.3879 Ti        1 MOL       0.0000
   1160 Ti56        15.4702    19.4695     3.7621 Ti        1 MOL       0.0000
   1161 H337         7.1294    20.1828    11.0599 H         1 MOL       0.0000
   1162 H338        18.2668    15.2609     2.2353 H         1 MOL       0.0000
   1163 H339         2.6677    15.5291    10.8970 H         1 MOL       0.0000
   1164 H340        20.8402    21.1713     2.1152 H         1 MOL       0.0000
   1165 H341        13.5881     8.0607    11.0269 H         1 MOL       0.0000
   1166 H342         7.1783    22.6001     2.1040 H         1 MOL       0.0000
   1167 H343         7.0963    14.4872    13.0039 H         1 MOL       0.0000
   1168 H344        15.5825    18.9243     0.2147 H         1 MOL       0.0000
   1169 H345        13.1224    11.4281     5.9017 H         1 MOL       0.0000
   1170 H346        10.5120    23.3487     7.3053 H         1 MOL       0.0000
   1171 H347         3.5041    17.9385     9.0320 H         1 MOL       0.0000
   1172 H348        20.2128    17.0826     4.2206 H         1 MOL       0.0000
   1173 H349         5.8052    16.4911     5.6982 H         1 MOL       0.0000
   1174 H350         8.1368    25.0179     4.1352 H         1 MOL       0.0000
   1175 H351        11.6291    26.2928     2.6375 H         1 MOL       0.0000
   1176 H352        18.1090    13.2421     3.4378 H         1 MOL       0.0000
   1177 H353        14.3281    21.1918     2.3478 H         1 MOL       0.0000
   1178 H354         9.6435    14.1980    10.7530 H         1 MOL       0.0000
   1179 H355        16.8472    14.0301     9.8025 H         1 MOL       0.0000
   1180 H356        15.3661    13.5610    10.5498 H         1 MOL       0.0000
   1181 H357        17.4213    18.4637     8.7035 H         1 MOL       0.0000
   1182 H358        16.8516    18.8223     7.0850 H         1 MOL       0.0000
   1183 H359        16.3584     9.0752     9.6124 H         1 MOL       0.0000
   1184 H360        15.0792    10.1758    10.0698 H         1 MOL       0.0000
   1185 C373        18.0361    18.4257     4.7781 C         1 MOL       0.0000
   1186 C374         5.6670    16.5472     8.4324 C         1 MOL       0.0000
   1187 C375        13.3048    11.3389     8.5347 C         1 MOL       0.0000
   1188 C376        10.2993    23.4822     4.6457 C         1 MOL       0.0000
   1189 C377        18.9321    17.8214     5.7733 C         1 MOL       0.0000
   1190 C378         4.7351    17.1722     7.4553 C         1 MOL       0.0000
   1191 C379        14.2450    10.7245     7.5875 C         1 MOL       0.0000
   1192 C380         9.4095    24.1290     5.6455 C         1 MOL       0.0000
   1193 C381        18.6833    17.8963     7.1797 C         1 MOL       0.0000
   1194 C382         4.9515    17.0522     6.0673 C         1 MOL       0.0000
   1195 C383        15.3744     9.9642     8.0406 C         1 MOL       0.0000
   1196 C384         8.3148    24.9020     5.2006 C         1 MOL       0.0000
   1197 C385         9.6640    23.9582     7.0004 C         1 MOL       0.0000
   1198 C386        13.9972    10.8566     6.2036 C         1 MOL       0.0000
   1199 C387        20.0658    17.1224     5.2976 C         1 MOL       0.0000
   1200 C388         3.6349    17.8646     7.9540 C         1 MOL       0.0000
   1201 C389        18.2478    15.3400     0.0912 C         1 MOL       0.0000
   1202 C390        11.7781    27.1316     0.1162 C         1 MOL       0.0000
   1203 C391        16.0973    14.0371    13.0602 C         1 MOL       0.0000
   1204 C392         2.7390    15.5795    13.0408 C         1 MOL       0.0000
   1205 C393        12.9822    19.1685     5.6510 C         1 MOL       0.0000
   1206 C394         8.2261    12.0742     7.5691 C         1 MOL       0.0000
   1207 C395        13.4770     9.7288    13.1630 C         1 MOL       0.0000
   1208 C396        11.6854    25.6981     0.0787 C         1 MOL       0.0000
   1209 C397        14.7995    13.4203    13.1070 C         1 MOL       0.0000
   1210 C398         4.1413    15.9939    13.0653 C         1 MOL       0.0000
   1211 C399        18.2872    14.6709     1.3209 C         1 MOL       0.0000
   1212 C400         7.1404    20.7713    11.9738 C         1 MOL       0.0000
   1213 C401         5.3876    21.9349     1.1091 C         1 MOL       0.0000
   1214 C402         2.1062    15.3498    11.8123 C         1 MOL       0.0000
   1215 C403        16.7919    14.3054    11.8268 C         1 MOL       0.0000
   1216 C404         6.6768    22.4151     1.1583 C         1 MOL       0.0000
   1217 C405        13.6297     7.5335    11.9759 C         1 MOL       0.0000
   1218 C406        18.3089    13.2698     1.4025 C         1 MOL       0.0000
   1219 N61         18.3639    12.6709     2.6406 N         1 MOL       0.0000
   1220 N62         16.2129    14.1226    10.5878 N         1 MOL       0.0000
   1221 N63         17.6025    18.5426     7.7110 N         1 MOL       0.0000
   1222 N64         15.7054     9.8060     9.3580 N         1 MOL       0.0000
   1223 O241        16.8598    18.8308     5.1439 O         1 MOL       0.0000
   1224 O242         6.4360    15.5963     8.0341 O         1 MOL       0.0000
   1225 O243        13.6862    11.4633     9.7558 O         1 MOL       0.0000
   1226 O244        10.2335    23.9119     3.4461 O         1 MOL       0.0000
   1227 O245        11.0698    22.5250     5.0322 O         1 MOL       0.0000
   1228 O246        12.1343    11.7073     8.1292 O         1 MOL       0.0000
   1229 O247        18.4480    18.5065     3.5664 O         1 MOL       0.0000
   1230 O248         5.6250    16.9834     9.6321 O         1 MOL       0.0000
   1231 O249        15.7754    18.2516     2.5674 O         1 MOL       0.0000
   1232 O250         8.1292    16.1102    10.1324 O         1 MOL       0.0000
   1233 O251        16.7142    20.5389     3.0173 O         1 MOL       0.0000
   1234 O252         6.3770    14.3855    10.6251 O         1 MOL       0.0000
   1235 O253        10.9835    11.1776    10.7198 O         1 MOL       0.0000
   1236 O254        12.7520    23.0730     2.9479 O         1 MOL       0.0000
   1237 O255        11.9375    13.4391    10.2557 O         1 MOL       0.0000
   1238 O256        11.0458    21.3159     2.4305 O         1 MOL       0.0000
   1239 O257        14.2033    18.9886     5.2967 O         1 MOL       0.0000
   1240 O258         7.5684    13.1091     7.9473 O         1 MOL       0.0000
   1241 O259        13.3548    10.3234    12.0219 O         1 MOL       0.0000
   1242 O260        11.6023    24.9966     1.1739 O         1 MOL       0.0000
   1243 O261        14.1569    13.1115    12.0168 O         1 MOL       0.0000
   1244 O262         9.3663    23.1609     1.1138 O         1 MOL       0.0000
   1245 O263         9.3879    11.7796     8.0269 O         1 MOL       0.0000
   1246 O264        12.2403    20.0894     5.1576 O         1 MOL       0.0000
   1247 O265        18.8951    20.1861     1.1600 O         1 MOL       0.0000
   1248 O266         4.7408    16.2257    11.9478 O         1 MOL       0.0000
   1249 O267        18.0995    17.4318     1.1894 O         1 MOL       0.0000
   1250 O268         7.0090    18.0080    12.0291 O         1 MOL       0.0000
   1251 O269        13.9672    20.6431     3.0684 O         1 MOL       0.0000
   1252 O270         9.2653    13.6393    10.0495 O         1 MOL       0.0000
   1253 O271        16.4213    19.4179     0.1356 O         1 MOL       0.0000
   1254 O272         7.2187    15.4540    13.0639 O         1 MOL       0.0000
   1255 H361        13.1832    15.5176     8.5538 H         1 MOL       0.0000
   1256 H362         2.8781    24.6705     6.1429 H         1 MOL       0.0000
   1257 H363        13.9371    24.2708     5.6144 H         1 MOL       0.0000
   1258 H364        14.1807    17.0618     6.8375 H         1 MOL       0.0000
   1259 H365         9.5252    17.7835     8.4643 H         1 MOL       0.0000
   1260 H366        21.6135    11.4051     7.0462 H         1 MOL       0.0000
   1261 H367        10.8560    15.8855     9.3280 H         1 MOL       0.0000
   1262 H368        10.5241    19.3246     6.7423 H         1 MOL       0.0000
   1263 H369        15.2728    22.5011     4.4977 H         1 MOL       0.0000
   1264 H370        17.7283    22.4067     4.7830 H         1 MOL       0.0000
   1265 C407        12.4054    18.2742     6.6829 C         1 MOL       0.0000
   1266 C408        11.2954    16.5603     8.5952 C         1 MOL       0.0000
   1267 C409        15.7710    23.2416     5.1224 C         1 MOL       0.0000
   1268 C410         7.5695    11.1093     6.6535 C         1 MOL       0.0000
   1269 C411        11.0910    18.4861     7.1424 C         1 MOL       0.0000
   1270 C412        12.6091    16.3519     8.1531 C         1 MOL       0.0000
   1271 C413        15.0185    24.2479     5.7401 C         1 MOL       0.0000
   1272 C414         1.8021    24.7024     5.9841 C         1 MOL       0.0000
   1273 C415        17.1609    23.1923     5.2797 C         1 MOL       0.0000
   1274 C416        22.1752    10.6090     6.5628 C         1 MOL       0.0000
   1275 C417        13.1651    17.2069     7.2006 C         1 MOL       0.0000
   1276 C418        10.5397    17.6308     8.0979 C         1 MOL       0.0000
   1277 N65         15.0876    24.9778     1.3134 N         1 MOL       0.0000
   1278 N66         11.6172    16.8272    12.9027 N         1 MOL       0.0000
   1279 C419        14.8572    25.5824     0.0861 C         1 MOL       0.0000
   1280 C420        10.9298    17.8264    12.2358 C         1 MOL       0.0000
   1281 C421        13.8793    16.7728    11.9048 C         1 MOL       0.0000
   1282 C422        14.6270    25.5090     2.6115 C         1 MOL       0.0000
   1283 C423        15.9694    23.9783     1.1228 C         1 MOL       0.0000
   1284 C424        12.6509    15.9613    12.3071 C         1 MOL       0.0000
   1285 H371         9.6337    19.4198    13.0858 H         1 MOL       0.0000
   1286 H372        11.0010    17.9671    11.1649 H         1 MOL       0.0000
   1287 H373        13.6174    17.5689    11.1961 H         1 MOL       0.0000
   1288 H374        14.2282    26.5183     2.4681 H         1 MOL       0.0000
   1289 H375        14.3450    17.2435    12.7775 H         1 MOL       0.0000
   1290 H376        13.9404    24.8184     3.0802 H         1 MOL       0.0000
   1291 H377        14.6151    16.1119    11.4293 H         1 MOL       0.0000
   1292 H378        12.2078    15.4423    11.4488 H         1 MOL       0.0000
   1293 H379        15.4727    25.6071     3.2930 H         1 MOL       0.0000
   1294 H380        16.4446    23.3904     1.8971 H         1 MOL       0.0000
   1295 H381        12.8872    15.2011    13.0593 H         1 MOL       0.0000
   1296 N67         23.0889    13.8211     0.2970 N         1 MOL       0.0000
   1297 C425         9.8935    14.3873     1.7273 C         1 MOL       0.0000
   1298 C426        19.1151     8.2471    11.1653 C         1 MOL       0.0000
   1299 O273        23.2719    13.4666     2.7907 O         1 MOL       0.0000
   1300 O274        17.8109    26.1330     1.2053 O         1 MOL       0.0000
   1301 O275        10.7996    20.8821    11.0523 O         1 MOL       0.0000
   1302 O276        13.3081    19.9657    11.2017 O         1 MOL       0.0000
   1303 F73          9.6347    15.8736     1.9918 F         1 MOL       0.0000
   1304 F74         20.1930     9.0303    11.8274 F         1 MOL       0.0000
   1305 F75         10.6833    14.4165     0.5940 F         1 MOL       0.0000
   1306 F76          9.8978    13.9230     3.2620 F         1 MOL       0.0000
   1307 F77         18.1597     9.1456    11.1150 F         1 MOL       0.0000
   1308 F78         12.7372    22.7559     9.4353 F         1 MOL       0.0000
   1309 S25         23.8542    12.9932     1.4869 S         1 MOL       0.0000
   1310 S26         12.0898    21.0468    11.6389 S         1 MOL       0.0000
   1311 N68         12.5017    15.4754     3.1501 N         1 MOL       0.0000
   1312 N69         10.5989    16.1312     4.0457 N         1 MOL       0.0000
   1313 C427        13.4974    15.1874     2.0933 C         1 MOL       0.0000
   1314 C428        11.4169    16.2511     2.9701 C         1 MOL       0.0000
   1315 C429        12.4360    14.9345     4.4241 C         1 MOL       0.0000
   1316 C430        13.2733    13.8422     1.4032 C         1 MOL       0.0000
   1317 C431        11.2492    15.3328     4.9773 C         1 MOL       0.0000
   1318 C432         9.1734    16.5210     4.1368 C         1 MOL       0.0000
   1319 H382        14.4657    15.2162     2.6018 H         1 MOL       0.0000
   1320 H383        13.4647    16.0203     1.3775 H         1 MOL       0.0000
   1321 H384        11.1648    16.6891     2.0092 H         1 MOL       0.0000
   1322 H385        14.1110    13.6180     0.7317 H         1 MOL       0.0000
   1323 H386        13.2681    14.3708     4.8133 H         1 MOL       0.0000
   1324 H387         9.0572    17.2232     4.9615 H         1 MOL       0.0000
   1325 H388         8.8704    17.0128     3.2078 H         1 MOL       0.0000
   1326 H389        13.1492    13.0208     2.1190 H         1 MOL       0.0000
   1327 H390        10.8227    15.1306     5.9494 H         1 MOL       0.0000
   1328 H391        12.3953    13.8595     0.7594 H         1 MOL       0.0000
   1329 H392         8.5160    15.6426     4.2485 H         1 MOL       0.0000
   1330 N70          8.9240    14.5868     1.4998 N         1 MOL       0.0000
   1331 C433        17.1464    26.6351     2.8176 C         1 MOL       0.0000
   1332 C434        19.2195     7.3947    12.2859 C         1 MOL       0.0000
   1333 O277         9.7347    16.8599     0.3980 O         1 MOL       0.0000
   1334 O278        10.7436    12.5974     2.9336 O         1 MOL       0.0000
   1335 O279         5.7822     7.7495    12.1676 O         1 MOL       0.0000
   1336 O280        19.2694    26.2060     0.7319 O         1 MOL       0.0000
   1337 F79         23.4143    12.4589     4.1804 F         1 MOL       0.0000
   1338 F80         18.0132     8.0676    12.8953 F         1 MOL       0.0000
   1339 F81         16.0668    26.8549     1.8338 F         1 MOL       0.0000
   1340 F82         17.1162    25.2644     3.0989 F         1 MOL       0.0000
   1341 F83         19.7446     7.7727    10.8610 F         1 MOL       0.0000
   1342 F84         12.5396    20.2796    12.2245 F         1 MOL       0.0000
   1343 S27          9.4925    15.4126     0.1304 S         1 MOL       0.0000
   1344 S28          2.9354    27.5411     1.9174 S         1 MOL       0.0000
   1345 Ti57         1.9926     9.2198    24.3744 Ti        1 MOL       0.0000
   1346 Ti58        12.8230    12.1010    15.0096 Ti        1 MOL       0.0000
   1347 Ti59         6.0892     5.2836    22.5544 Ti        1 MOL       0.0000
   1348 Ti60         7.6004    14.4457    16.7814 Ti        1 MOL       0.0000
   1349 Ti61         6.6019    16.1240    14.8770 Ti        1 MOL       0.0000
   1350 Ti62         7.9775     5.0292    24.5078 Ti        1 MOL       0.0000
   1351 Ti63         2.9418     7.4839    22.4829 Ti        1 MOL       0.0000
   1352 Ti64        10.8352    12.4035    16.8571 Ti        1 MOL       0.0000
   1353 H393         2.4944    13.1168    24.1549 H         1 MOL       0.0000
   1354 H394        13.6318     8.1949    15.3303 H         1 MOL       0.0000
   1355 H395        -1.9673     8.4631    23.9920 H         1 MOL       0.0000
   1356 H396        16.2052    14.1053    15.2102 H         1 MOL       0.0000
   1357 H397         8.9531     0.9947    24.1219 H         1 MOL       0.0000
   1358 H398         2.5433    15.5341    15.1991 H         1 MOL       0.0000
   1359 H399         2.4613     7.4212    26.0989 H         1 MOL       0.0000
   1360 H400        10.9475    11.8583    13.3096 H         1 MOL       0.0000
   1361 H401         8.4874     4.3621    18.9967 H         1 MOL       0.0000
   1362 H402         5.8770    16.2827    20.4003 H         1 MOL       0.0000
   1363 H403        -1.1309    10.8725    22.1270 H         1 MOL       0.0000
   1364 H404        15.5778    10.0166    17.3156 H         1 MOL       0.0000
   1365 H405         1.1702     9.4251    18.7932 H         1 MOL       0.0000
   1366 H406         3.5018    17.9519    17.2302 H         1 MOL       0.0000
   1367 H407         6.9941    19.2268    15.7325 H         1 MOL       0.0000
   1368 H408        13.4740     6.1761    16.5328 H         1 MOL       0.0000
   1369 H409         9.6931    14.1258    15.4428 H         1 MOL       0.0000
   1370 H410         5.0085     7.1320    23.8480 H         1 MOL       0.0000
   1371 H411        12.2122     6.9641    22.8975 H         1 MOL       0.0000
   1372 H412        10.7311     6.4950    23.6448 H         1 MOL       0.0000
   1373 H413        12.7863    11.3977    21.7985 H         1 MOL       0.0000
   1374 H414        12.2166    11.7563    20.1800 H         1 MOL       0.0000
   1375 H415        11.7234     2.0092    22.7074 H         1 MOL       0.0000
   1376 H416        10.4442     3.1098    23.1648 H         1 MOL       0.0000
   1377 C435        13.4011    11.3597    17.8731 C         1 MOL       0.0000
   1378 C436         1.0320     9.4811    21.5274 C         1 MOL       0.0000
   1379 C437         8.6698     4.2729    21.6297 C         1 MOL       0.0000
   1380 C438         5.6643    16.4162    17.7407 C         1 MOL       0.0000
   1381 C439        14.2971    10.7554    18.8683 C         1 MOL       0.0000
   1382 C440         0.1001    10.1062    20.5503 C         1 MOL       0.0000
   1383 C441         9.6100     3.6585    20.6825 C         1 MOL       0.0000
   1384 C442         4.7745    17.0630    18.7405 C         1 MOL       0.0000
   1385 C443        14.0483    10.8303    20.2747 C         1 MOL       0.0000
   1386 C444         0.3165     9.9862    19.1623 C         1 MOL       0.0000
   1387 C445        10.7394     2.8982    21.1356 C         1 MOL       0.0000
   1388 C446         3.6798    17.8360    18.2956 C         1 MOL       0.0000
   1389 C447         5.0290    16.8923    20.0954 C         1 MOL       0.0000
   1390 C448         9.3622     3.7906    19.2986 C         1 MOL       0.0000
   1391 C449        15.4308    10.0564    18.3926 C         1 MOL       0.0000
   1392 C450        -1.0001    10.7986    21.0490 C         1 MOL       0.0000
   1393 C451        13.6128     8.2740    13.1862 C         1 MOL       0.0000
   1394 C452         7.1431    20.0656    13.2112 C         1 MOL       0.0000
   1395 C453        11.4623     6.9711    26.1552 C         1 MOL       0.0000
   1396 C454        -1.8960     8.5135    26.1358 C         1 MOL       0.0000
   1397 C455         8.3472    12.1025    18.7460 C         1 MOL       0.0000
   1398 C456         3.5911     5.0082    20.6641 C         1 MOL       0.0000
   1399 C457         8.8420     2.6628    26.2580 C         1 MOL       0.0000
   1400 C458         7.0504    18.6321    13.1737 C         1 MOL       0.0000
   1401 C459        10.1645     6.3543    26.2020 C         1 MOL       0.0000
   1402 C460        -0.4937     8.9279    26.1603 C         1 MOL       0.0000
   1403 C461        13.6522     7.6049    14.4159 C         1 MOL       0.0000
   1404 C462         2.5054    13.7053    25.0688 C         1 MOL       0.0000
   1405 C463         0.7526    14.8689    14.2041 C         1 MOL       0.0000
   1406 C464        -2.5288     8.2838    24.9073 C         1 MOL       0.0000
   1407 C465        12.1569     7.2394    24.9218 C         1 MOL       0.0000
   1408 C466         2.0418    15.3491    14.2533 C         1 MOL       0.0000
   1409 C467         8.9947     0.4675    25.0709 C         1 MOL       0.0000
   1410 C468        13.6739     6.2038    14.4975 C         1 MOL       0.0000
   1411 N71         13.7289     5.6049    15.7356 N         1 MOL       0.0000
   1412 N72         11.5779     7.0566    23.6828 N         1 MOL       0.0000
   1413 N73         12.9675    11.4766    20.8060 N         1 MOL       0.0000
   1414 N74         11.0704     2.7400    22.4530 N         1 MOL       0.0000
   1415 O281        12.2248    11.7648    18.2389 O         1 MOL       0.0000
   1416 O282         1.8010     8.5303    21.1291 O         1 MOL       0.0000
   1417 O283         9.0512     4.3973    22.8508 O         1 MOL       0.0000
   1418 O284         5.5985    16.8459    16.5412 O         1 MOL       0.0000
   1419 O285         6.4348    15.4590    18.1272 O         1 MOL       0.0000
   1420 O286         7.4993     4.6413    21.2242 O         1 MOL       0.0000
   1421 O287        13.8130    11.4405    16.6614 O         1 MOL       0.0000
   1422 O288         0.9900     9.9174    22.7271 O         1 MOL       0.0000
   1423 O289        11.1404    11.1856    15.6624 O         1 MOL       0.0000
   1424 O290         3.4942     9.0442    23.2274 O         1 MOL       0.0000
   1425 O291        12.0792    13.4729    16.1123 O         1 MOL       0.0000
   1426 O292         1.7420     7.3195    23.7201 O         1 MOL       0.0000
   1427 O293         6.3486     4.1116    23.8148 O         1 MOL       0.0000
   1428 O294         8.1170    16.0070    16.0429 O         1 MOL       0.0000
   1429 O295         7.3025     6.3731    23.3507 O         1 MOL       0.0000
   1430 O296         6.4108    14.2499    15.5255 O         1 MOL       0.0000
   1431 O297         9.5683    11.9226    18.3917 O         1 MOL       0.0000
   1432 O298         2.9334     6.0431    21.0423 O         1 MOL       0.0000
   1433 O299         8.7198     3.2574    25.1169 O         1 MOL       0.0000
   1434 O300         6.9673    17.9306    14.2689 O         1 MOL       0.0000
   1435 O301         9.5219     6.0455    25.1118 O         1 MOL       0.0000
   1436 O302         4.7313    16.0949    14.2088 O         1 MOL       0.0000
   1437 O303         4.7529     4.7136    21.1219 O         1 MOL       0.0000
   1438 O304         7.6053    13.0234    18.2526 O         1 MOL       0.0000
   1439 O305        14.2601    13.1201    14.2550 O         1 MOL       0.0000
   1440 O306         0.1058     9.1597    25.0428 O         1 MOL       0.0000
   1441 O307        13.4645    10.3658    14.2844 O         1 MOL       0.0000
   1442 O308         2.3740    10.9420    25.1241 O         1 MOL       0.0000
   1443 O309         9.3322    13.5771    16.1634 O         1 MOL       0.0000
   1444 O310         4.6303     6.5733    23.1445 O         1 MOL       0.0000
   1445 O311        11.7863    12.3519    13.2306 O         1 MOL       0.0000
   1446 O312         2.5837     8.3880    26.1589 O         1 MOL       0.0000
   1447 H417         8.5482     8.4516    21.6488 H         1 MOL       0.0000
   1448 H418        -1.7569    17.6045    19.2379 H         1 MOL       0.0000
   1449 H419         9.3021    17.2048    18.7094 H         1 MOL       0.0000
   1450 H420         9.5457     9.9958    19.9325 H         1 MOL       0.0000
   1451 H421         4.8902    10.7175    21.5593 H         1 MOL       0.0000
   1452 H422        16.9785     4.3391    20.1412 H         1 MOL       0.0000
   1453 H423         6.2210     8.8195    22.4230 H         1 MOL       0.0000
   1454 H424         5.8891    12.2586    19.8373 H         1 MOL       0.0000
   1455 H425        10.6378    15.4351    17.5927 H         1 MOL       0.0000
   1456 H426        13.0933    15.3407    17.8780 H         1 MOL       0.0000
   1457 C469         7.7704    11.2082    19.7779 C         1 MOL       0.0000
   1458 C470         6.6604     9.4943    21.6902 C         1 MOL       0.0000
   1459 C471        11.1360    16.1756    18.2174 C         1 MOL       0.0000
   1460 C472         2.9345     4.0433    19.7485 C         1 MOL       0.0000
   1461 C473         6.4560    11.4201    20.2374 C         1 MOL       0.0000
   1462 C474         7.9741     9.2859    21.2481 C         1 MOL       0.0000
   1463 C475        10.3835    17.1819    18.8351 C         1 MOL       0.0000
   1464 C476        -2.8329    17.6364    19.0791 C         1 MOL       0.0000
   1465 C477        12.5259    16.1263    18.3747 C         1 MOL       0.0000
   1466 C478        17.5402     3.5430    19.6578 C         1 MOL       0.0000
   1467 C479         8.5301    10.1409    20.2956 C         1 MOL       0.0000
   1468 C480         5.9047    10.5648    21.1929 C         1 MOL       0.0000
   1469 N75         10.4526    17.9118    14.4084 N         1 MOL       0.0000
   1470 N76          6.9822     9.7612    25.9977 N         1 MOL       0.0000
   1471 C481        10.2222    18.5164    13.1811 C         1 MOL       0.0000
   1472 C482         6.2948    10.7604    25.3308 C         1 MOL       0.0000
   1473 C483         9.2443     9.7068    24.9998 C         1 MOL       0.0000
   1474 C484         9.9920    18.4430    15.7065 C         1 MOL       0.0000
   1475 C485        11.3344    16.9123    14.2178 C         1 MOL       0.0000
   1476 C486         8.0159     8.8953    25.4021 C         1 MOL       0.0000
   1477 H427         4.9987    12.3538    26.1808 H         1 MOL       0.0000
   1478 H428         6.3660    10.9011    24.2599 H         1 MOL       0.0000
   1479 H429         8.9824    10.5029    24.2911 H         1 MOL       0.0000
   1480 H430         9.5932    19.4523    15.5631 H         1 MOL       0.0000
   1481 H431         9.7100    10.1775    25.8725 H         1 MOL       0.0000
   1482 H432         9.3054    17.7524    16.1752 H         1 MOL       0.0000
   1483 H433         9.9801     9.0459    24.5243 H         1 MOL       0.0000
   1484 H434         7.5728     8.3763    24.5438 H         1 MOL       0.0000
   1485 H435        10.8377    18.5411    16.3880 H         1 MOL       0.0000
   1486 H436        11.8096    16.3244    14.9921 H         1 MOL       0.0000
   1487 H437         8.2522     8.1351    26.1543 H         1 MOL       0.0000
   1488 N77         18.4539     6.7551    13.3920 N         1 MOL       0.0000
   1489 C487         5.2585     7.3213    14.8223 C         1 MOL       0.0000
   1490 C488        14.4801     1.1811    24.2603 C         1 MOL       0.0000
   1491 O313        18.6369     6.4006    15.8857 O         1 MOL       0.0000
   1492 O314        13.1759    19.0670    14.3003 O         1 MOL       0.0000
   1493 O315         6.1646    13.8161    24.1473 O         1 MOL       0.0000
   1494 O316         8.6731    12.8997    24.2967 O         1 MOL       0.0000
   1495 F85          4.9997     8.8076    15.0868 F         1 MOL       0.0000
   1496 F86         15.5580     1.9643    24.9224 F         1 MOL       0.0000
   1497 F87          6.0483     7.3505    13.6890 F         1 MOL       0.0000
   1498 F88          5.2628     6.8570    16.3570 F         1 MOL       0.0000
   1499 F89         13.5247     2.0796    24.2100 F         1 MOL       0.0000
   1500 F90          8.1022    15.6899    22.5303 F         1 MOL       0.0000
   1501 S29         19.2192     5.9272    14.5819 S         1 MOL       0.0000
   1502 S30          7.4548    13.9808    24.7339 S         1 MOL       0.0000
   1503 N78          7.8667     8.4094    16.2451 N         1 MOL       0.0000
   1504 N79          5.9639     9.0652    17.1407 N         1 MOL       0.0000
   1505 C489         8.8624     8.1214    15.1883 C         1 MOL       0.0000
   1506 C490         6.7819     9.1851    16.0651 C         1 MOL       0.0000
   1507 C491         7.8010     7.8685    17.5191 C         1 MOL       0.0000
   1508 C492         8.6383     6.7762    14.4982 C         1 MOL       0.0000
   1509 C493         6.6142     8.2668    18.0723 C         1 MOL       0.0000
   1510 C494         4.5384     9.4550    17.2318 C         1 MOL       0.0000
   1511 H438         9.8307     8.1502    15.6968 H         1 MOL       0.0000
   1512 H439         8.8297     8.9543    14.4725 H         1 MOL       0.0000
   1513 H440         6.5298     9.6231    15.1042 H         1 MOL       0.0000
   1514 H441         9.4760     6.5520    13.8267 H         1 MOL       0.0000
   1515 H442         8.6331     7.3048    17.9083 H         1 MOL       0.0000
   1516 H443         4.4222    10.1572    18.0565 H         1 MOL       0.0000
   1517 H444         4.2354     9.9468    16.3028 H         1 MOL       0.0000
   1518 H445         8.5142     5.9548    15.2140 H         1 MOL       0.0000
   1519 H446         6.1877     8.0646    19.0444 H         1 MOL       0.0000
   1520 H447         7.7603     6.7935    13.8544 H         1 MOL       0.0000
   1521 H448         3.8810     8.5766    17.3435 H         1 MOL       0.0000
   1522 N80          4.2890     7.5208    14.5948 N         1 MOL       0.0000
   1523 C495        12.5114    19.5691    15.9126 C         1 MOL       0.0000
   1524 C496        14.5845     0.3287    25.3809 C         1 MOL       0.0000
   1525 O317         5.0997     9.7939    13.4930 O         1 MOL       0.0000
   1526 O318         6.1086     5.5314    16.0286 O         1 MOL       0.0000
   1527 O319         1.1472     0.6835    25.2626 O         1 MOL       0.0000
   1528 O320        14.6344    19.1400    13.8269 O         1 MOL       0.0000
   1529 F91         18.7793     5.3929    17.2754 F         1 MOL       0.0000
   1530 F92         13.3782     1.0016    25.9903 F         1 MOL       0.0000
   1531 F93         11.4318    19.7889    14.9288 F         1 MOL       0.0000
   1532 F94         12.4812    18.1984    16.1939 F         1 MOL       0.0000
   1533 F95         15.1096     0.7067    23.9560 F         1 MOL       0.0000
   1534 F96          7.9046    13.2136    25.3195 F         1 MOL       0.0000
   1535 S31          4.8575     8.3466    13.2254 S         1 MOL       0.0000
   1536 S32         -1.6996    20.4751    15.0124 S         1 MOL       0.0000
@<TRIPOS>BOND
     1     1    78 1
     2     1    96 1
     3     7    88 1
     4     7   100 1
     5     1     7 1
     6     1    80 1
     7     1    82 1
     8     7    72 1
     9     7    80 1
    10     7    82 1
    11     1   102 1
    12     1   197 1
    13     1    98 1
    14     2     8 1
    15     2    79 1
    16     2    81 1
    17     2   101 1
    18     2    97 1
    19     2    77 1
    20     2    95 1
    21     3    93 1
    22     3   100 1
    23     3    76 1
    24     3    83 1
    25     3    85 1
    26     3     6 1
    27     4    86 1
    28     4    94 1
    29     4     5 1
    30     4    84 1
    31     4    75 1
    32     4    99 1
    33     5    92 1
    34     5    86 1
    35     5    74 1
    36     5    84 1
    37     5    90 1
    38     6    83 1
    39     6    85 1
    40     6   194 1
    41     6   293 1
    42   194   293 1
    43   208   293 1
    44   194   200 1
    45   194   271 1
    46   194   273 1
    47     6    73 1
    48     6    89 1
    49     6    91 1
    50   194   287 1
    51   194   289 1
    52   194   269 1
    53     8    79 1
    54     8    81 1
    55     8    99 1
    56    16   101 1
    57    25    99 1
    58     8    71 1
    59     8    87 1
    60     9    60 1
    61    59    66 1
    62    10    59 1
    63    49    59 1
    64    34    38 1
    65    34    78 1
    66    11    62 1
    67    34    72 1
    68    12   829 1
    69   829   832 1
    70    31    70 1
    71    32    70 1
    72    43    70 1
    73    13    65 1
    74    14    64 1
    75   197   284 1
    76   197   266 1
    77    15   102 1
    78   102   197 1
    79   197   276 1
    80   197   278 1
    81   197   282 1
    82    17    46 1
    83    36    40 1
    84    45   427 1
    85    36    74 1
    86    18    45 1
    87    36    75 1
    88    19    48 1
    89    20    47 1
    90    47   810 1
    91    21    42 1
    92   166   173 1
    93   166   172 1
    94   166   177 1
    95    22    44 1
    96    40    44 1
    97    44   430 1
    98    40    45 1
    99    56    90 1
   100    23   451 1
   101    50    56 1
   102    50   450 1
   103   408   451 1
   104   450   451 1
   105    24    67 1
   106    66    67 1
   107    26   100 1
   108   118   123 1
   109   103   118 1
   110   107   124 1
   111   109   114 1
   112   114   118 1
   113   114   124 1
   114    35    76 1
   115    39    43 1
   116    39    46 1
   117    35    39 1
   118    35    73 1
   119    27    68 1
   120    28    68 1
   121    29    69 1
   122    30    69 1
   123    33    71 1
   124    37    47 1
   125    41   816 1
   126    33    77 1
   127    33    37 1
   128    37    41 1
   129    41    69 1
   130    38    42 1
   131    38    48 1
   132    51    57 1
   133    57    91 1
   134    57   287 1
   135    51    63 1
   136    51  1021 1
   137    52    58 1
   138    52    62 1
   139    52   256 1
   140    58    96 1
   141    58   284 1
   142   113   123 1
   143   117   124 1
   144    53    94 1
   145    53   113 1
   146   110   117 1
   147   113   117 1
   148    53    87 1
   149    54   116 1
   150    54    88 1
   151    54    93 1
   152   251   258 1
   153    55   241 1
   154    65   241 1
   155   241   251 1
   156    55    89 1
   157    55   289 1
   158    60   242 1
   159    98   248 1
   160   242   248 1
   161   242   642 1
   162   248   282 1
   163   642   643 1
   164    60   449 1
   165    61    64 1
   166   129   132 1
   167    63    68 1
   168   129   135 1
   169   129   137 1
   170   129   139 1
   171    63   830 1
   172  1021  1024 1
   173   104   120 1
   174   105   119 1
   175   111   115 1
   176   115   119 1
   177   119   506 1
   178   115   121 1
   179   506  1268 1
   180   106   123 1
   181   108   122 1
   182   122   884 1
   183   112   121 1
   184   121   888 1
   185   872   888 1
   186   888  1268 1
   187   120   500 1
   188   160   166 1
   189   160   162 1
   190   160   165 1
   191   163   165 1
   192   165   175 1
   193   163   171 1
   194   125   131 1
   195   131   142 1
   196   125   127 1
   197   125   130 1
   198   126   132 1
   199   126   323 1
   200   132   140 1
   201   132   143 1
   202   323   334 1
   203   126   128 1
   204   130   138 1
   205   130   136 1
   206   130   141 1
   207   187   531 1
   208   187   541 1
   209   528   541 1
   210   531   541 1
   211   317   323 1
   212   128   134 1
   213   128   319 1
   214   133   319 1
   215   158   190 1
   216   158   720 1
   217   190   720 1
   218   317   319 1
   219   340   733 1
   220   379   733 1
   221   720   733 1
   222   317   322 1
   223   340   371 1
   224   379   723 1
   225   158   530 1
   226   158   573 1
   227   158   564 1
   228   190   564 1
   229   340   376 1
   230   733  1489 1
   231   340  1152 1
   232   733  1152 1
   233   733  1522 1
   234   149   158 1
   235   144   157 1
   236   147   157 1
   237   157   913 1
   238   157   946 1
   239   145   178 1
   240   151   178 1
   241   145   154 1
   242   145   151 1
   243   145   153 1
   244   145   191 1
   245   151   191 1
   246   153   191 1
   247   159   162 1
   248   162   169 1
   249   181   191 1
   250   159   163 1
   251   159   161 1
   252   146   155 1
   253   146   189 1
   254   146   152 1
   255   146   180 1
   256   179   187 1
   257   179   531 1
   258   179   569 1
   259   179   188 1
   260   148   179 1
   261   148   184 1
   262   148   541 1
   263   148   960 1
   264   179   541 1
   265   179   960 1
   266   184   960 1
   267   541   960 1
   268   541  1297 1
   269   541  1330 1
   270   960  1297 1
   271   960  1306 1
   272   960  1330 1
   273   960  1334 1
   274  1297  1305 1
   275  1297  1306 1
   276  1297  1330 1
   277  1306  1334 1
   278  1297  1303 1
   279  1297  1343 1
   280  1305  1343 1
   281  1330  1343 1
   282   150   158 1
   283   150   190 1
   284   336   349 1
   285   180   189 1
   286   180   186 1
   287   180   336 1
   288   186   336 1
   289   152  1151 1
   290   180  1151 1
   291  1138  1151 1
   292   154   182 1
   293   415   454 1
   294   156   530 1
   295   156   573 1
   296   530   539 1
   297   530   573 1
   298   530   564 1
   299   530   536 1
   300   161   164 1
   301   161   167 1
   302   161   168 1
   303   164   174 1
   304   164   176 1
   305   164   170 1
   306   178   191 1
   307   183   383 1
   308   345   383 1
   309   356   362 1
   310   356   366 1
   311   183   345 1
   312   356   368 1
   313   192   529 1
   314   192   538 1
   315   192   566 1
   316   529   537 1
   317   529   538 1
   318   538   566 1
   319   192   562 1
   320   529   535 1
   321   529   562 1
   322   529   575 1
   323   537   575 1
   324   193   270 1
   325   193   274 1
   326   193   288 1
   327   193   199 1
   328   193   272 1
   329   193   294 1
   330   207   294 1
   331   218   292 1
   332   193   290 1
   333   195   285 1
   334   195   292 1
   335   195   268 1
   336   195   198 1
   337   195   275 1
   338   195   277 1
   339   198   265 1
   340   198   275 1
   341   198   277 1
   342   198   281 1
   343   198   283 1
   344   196   286 1
   345   196   291 1
   346   196   197 1
   347   196   267 1
   348   196   276 1
   349   196   278 1
   350   297   311 1
   351   199   264 1
   352   199   274 1
   353   199   280 1
   354   199   272 1
   355   199   292 1
   356   200   291 1
   357   200   263 1
   358   200   271 1
   359   200   273 1
   360   200   279 1
   361   201   252 1
   362   252   641 1
   363   202   251 1
   364   212   239 1
   365   239  1002 1
   366   203   254 1
   367   244   254 1
   368   244   250 1
   369   204  1021 1
   370   205   257 1
   371   247   281 1
   372   206   256 1
   373   228   232 1
   374   228   266 1
   375   232   237 1
   376   232   236 1
   377   228   267 1
   378   209   238 1
   379   227   268 1
   380   227   265 1
   381   227   231 1
   382   210   237 1
   383   348   722 1
   384   348   765 1
   385   211   240 1
   386   213   234 1
   387   226   230 1
   388   226   264 1
   389   230   234 1
   390   226   270 1
   391   230   240 1
   392   214   236 1
   393   236   622 1
   394   215   643 1
   395   600   643 1
   396   216   259 1
   397   217   291 1
   398   303   307 1
   399   304   313 1
   400   307   313 1
   401   307   311 1
   402   313  1080 1
   403   243   249 1
   404   219   260 1
   405   243   255 1
   406   255   260 1
   407   255  1022 1
   408   224   262 1
   409   249   283 1
   410   220   260 1
   411   221   261 1
   412   222   261 1
   413   223   262 1
   414   225   263 1
   415   225   269 1
   416   225   229 1
   417   233   261 1
   418   229   239 1
   419   233  1008 1
   420   979  1008 1
   421   229   233 1
   422   231   238 1
   423   235   262 1
   424   231   235 1
   425   237   619 1
   426   619   646 1
   427   245   286 1
   428   245   305 1
   429   245   279 1
   430   246   280 1
   431   246   285 1
   432   246   308 1
   433   250   288 1
   434   253   256 1
   435   258   259 1
   436   295   310 1
   437   301   306 1
   438   306   310 1
   439   310   315 1
   440   306   316 1
   441   296   312 1
   442   298   315 1
   443   299   316 1
   444   300   314 1
   445   305   315 1
   446   302   309 1
   447   305   309 1
   448   309   316 1
   449   311   698 1
   450  1080  1460 1
   451   312   692 1
   452   314  1076 1
   453  1014  1048 1
   454  1014  1076 1
   455  1014  1053 1
   456   318   324 1
   457   321   324 1
   458   324   332 1
   459   324   335 1
   460   318   320 1
   461   321   327 1
   462   321   329 1
   463   321   331 1
   464   320   326 1
   465   341   350 1
   466   342   350 1
   467   342   382 1
   468   350   382 1
   469   350   722 1
   470   350   756 1
   471   350   765 1
   472   382   756 1
   473   322   330 1
   474   371   379 1
   475   371   733 1
   476   723   733 1
   477   322   328 1
   478   322   333 1
   479   371   380 1
   480   371   723 1
   481   371   761 1
   482   371  1152 1
   483   337   370 1
   484   337   383 1
   485   370   383 1
   486   373   383 1
   487   337   343 1
   488   337   346 1
   489   337   345 1
   490   338   344 1
   491   338   347 1
   492   338   372 1
   493   338   381 1
   494   372   378 1
   495   372   381 1
   496   339   349 1
   497   343   370 1
   498   343   383 1
   499   358   364 1
   500   358   365 1
   501   358   369 1
   502   346   374 1
   503   349  1138 1
   504   349  1105 1
   505   352   358 1
   506   353   356 1
   507   353   360 1
   508   351   353 1
   509   351   354 1
   510   351   355 1
   511   352   354 1
   512   352   357 1
   513   354   361 1
   514   355   357 1
   515   355   363 1
   516   357   367 1
   517   353   359 1
   518  1489  1497 1
   519   376  1152 1
   520  1489  1498 1
   521  1489  1522 1
   522  1489  1535 1
   523  1497  1535 1
   524  1489  1495 1
   525   384   754 1
   526   384   730 1
   527   384   758 1
   528   384   721 1
   529   418   422 1
   530   385   480 1
   531   385   466 1
   532   391   466 1
   533   391   472 1
   534   385   391 1
   535   385   462 1
   536   385   464 1
   537   391   456 1
   538   391   464 1
   539   418   456 1
   540   418   462 1
   541   385   482 1
   542   385   486 1
   543   385   581 1
   544   391   484 1
   545   386   392 1
   546   386   463 1
   547   386   481 1
   548   386   461 1
   549   386   465 1
   550   386   479 1
   551   386   485 1
   552   387   460 1
   553   387   467 1
   554   387   469 1
   555   387   477 1
   556   387   484 1
   557   410   484 1
   558   387   390 1
   559   388   470 1
   560   388   478 1
   561   388   389 1
   562   388   459 1
   563   388   483 1
   564   388   468 1
   565   389   470 1
   566   389   458 1
   567   389   474 1
   568   389   476 1
   569   389   468 1
   570   390   467 1
   571   390   469 1
   572   390   677 1
   573   578   677 1
   574   578   584 1
   575   578   655 1
   576   578   657 1
   577   390   473 1
   578   578   673 1
   579   390   457 1
   580   390   475 1
   581   390   578 1
   582   441   475 1
   583   441   671 1
   584   578   671 1
   585   578   653 1
   586   392   463 1
   587   392   483 1
   588   409   483 1
   589   392   471 1
   590   392   465 1
   591   400   485 1
   592   392   455 1
   593   393   444 1
   594   443   450 1
   595   394   443 1
   596   433   443 1
   597   403   432 1
   598   395   446 1
   599   396  1213 1
   600  1213  1216 1
   601   416   454 1
   602   427   454 1
   603   397   449 1
   604   398   448 1
   605   581   668 1
   606   581   662 1
   607   399   486 1
   608   486   581 1
   609   581   666 1
   610   581   650 1
   611   581   660 1
   612   482   632 1
   613   423   427 1
   614   401   430 1
   615   423   430 1
   616   424   428 1
   617   420   458 1
   618   402   429 1
   619   420   424 1
   620   420   459 1
   621   424   429 1
   622  1190  1200 1
   623   404   431 1
   624   431  1194 1
   625  1173  1194 1
   626  1190  1194 1
   627   405   426 1
   628   406   428 1
   629   434   440 1
   630   411   452 1
   631   419   460 1
   632   419   423 1
   633   419   457 1
   634   412   452 1
   635   413   453 1
   636   417   421 1
   637   417   461 1
   638   417   455 1
   639   414   453 1
   640   421   425 1
   641   425  1200 1
   642   425   453 1
   643   421   431 1
   644   422   432 1
   645   422   426 1
   646   435   441 1
   647   447   452 1
   648   435   447 1
   649   435  1405 1
   650   447  1214 1
   651  1405  1408 1
   652   436   442 1
   653   436   446 1
   654   436   640 1
   655   442   480 1
   656   442   668 1
   657   437   478 1
   658   497   501 1
   659   497   507 1
   660   437   471 1
   661   437   497 1
   662   438   500 1
   663   438   472 1
   664   438   477 1
   665   635   642 1
   666   439   473 1
   667   439   625 1
   668   439   673 1
   669   449   625 1
   670   625   635 1
   671   440   474 1
   672   632   666 1
   673   444   626 1
   674   626   632 1
   675   445   448 1
   676   509   511 1
   677   509   514 1
   678   509   515 1
   679   514   522 1
   680   514   525 1
   681   514   520 1
   682   515   526 1
   683   501   508 1
   684   494   501 1
   685   502   507 1
   686   487   502 1
   687   488   504 1
   688   489   503 1
   689   495   499 1
   690   499   503 1
   691   499   505 1
   692   547   549 1
   693   547   555 1
   694   490   507 1
   695   491   508 1
   696   493   498 1
   697   498   508 1
   698   498   502 1
   699   492   506 1
   700   496   505 1
   701   505  1272 1
   702  1256  1272 1
   703   512   518 1
   704   510   512 1
   705   510   707 1
   706   701   707 1
   707   707   718 1
   708   512   703 1
   709   701   703 1
   710   701   706 1
   711   510   516 1
   712   516   524 1
   713   513   519 1
   714   513   516 1
   715   513   521 1
   716   513   523 1
   717   516   527 1
   718   517   703 1
   719   542   574 1
   720   563   572 1
   721   532   563 1
   722   532   568 1
   723   532  1344 1
   724   563   571 1
   725   563  1344 1
   726   568  1344 1
   727   533   542 1
   728   534   542 1
   729   534   574 1
   730   535   562 1
   731   535   575 1
   732   546   553 1
   733   562   575 1
   734   565   575 1
   735  1335  1497 1
   736   536  1535 1
   737  1335  1535 1
   738  1522  1535 1
   739  1525  1535 1
   740   543   546 1
   741   545   548 1
   742   543   545 1
   743   545   551 1
   744   545   552 1
   745   543   547 1
   746   544   546 1
   747   550   557 1
   748   544   549 1
   749   544   550 1
   750   549   559 1
   751   550   556 1
   752   550   561 1
   753   548   554 1
   754   548   558 1
   755   548   560 1
   756   564   720 1
   757   570   720 1
   758   564   573 1
   759   564   570 1
   760   564  1535 1
   761   721   754 1
   762   727   754 1
   763   721   730 1
   764   567   729 1
   765   567   767 1
   766   721   727 1
   767   721   729 1
   768   721   767 1
   769   727   767 1
   770   729   767 1
   771   757   767 1
   772   724   760 1
   773   724   755 1
   774   724  1536 1
   775   760  1536 1
   776   577   654 1
   777   577   672 1
   778   577   583 1
   779   577   656 1
   780   577   658 1
   781   577   678 1
   782   591   678 1
   783   577   674 1
   784   579   676 1
   785   579   652 1
   786   579   669 1
   787   579   582 1
   788   579   659 1
   789   579   661 1
   790   593   622 1
   791   616   620 1
   792   580   662 1
   793   580   670 1
   794   580   581 1
   795   580   651 1
   796   580   660 1
   797   612   616 1
   798   612   650 1
   799   612   651 1
   800   616   621 1
   801   580   675 1
   802   582   659 1
   803   582   661 1
   804   582   649 1
   805   582   665 1
   806   582   667 1
   807   610   614 1
   808   610   654 1
   809   583   664 1
   810   583   676 1
   811   583   648 1
   812   610   648 1
   813   583   656 1
   814   583   658 1
   815   584   647 1
   816   584   655 1
   817   584   657 1
   818   584   663 1
   819   584   675 1
   820   601   675 1
   821   585   636 1
   822   586   635 1
   823   596   623 1
   824   623  1386 1
   825   587   638 1
   826   628   634 1
   827   628   638 1
   828   634   672 1
   829   588  1405 1
   830   607   646 1
   831   608   646 1
   832   589   641 1
   833   631   665 1
   834   590   640 1
   835   598   620 1
   836   592   677 1
   837   594   621 1
   838   595   624 1
   839   597   618 1
   840   742   748 1
   841   742   749 1
   842   742   753 1
   843   602   676 1
   844   702   708 1
   845   708   716 1
   846   708   719 1
   847   702   704 1
   848   705   708 1
   849   627   633 1
   850   603   644 1
   851   627   639 1
   852   639   644 1
   853   705   711 1
   854   705   713 1
   855   705   715 1
   856   639  1406 1
   857   633   667 1
   858   604   644 1
   859   613   623 1
   860   617  1392 1
   861   605   645 1
   862   613   617 1
   863   617   645 1
   864   606   645 1
   865   609   647 1
   866   609   653 1
   867   609   613 1
   868   611   652 1
   869   615   619 1
   870   611   615 1
   871   615   622 1
   872   611   649 1
   873   614   618 1
   874   614   624 1
   875   629   670 1
   876   629   689 1
   877   629   663 1
   878   630   664 1
   879   630   692 1
   880   630   669 1
   881   637   640 1
   882   679   694 1
   883   682   699 1
   884   680   696 1
   885   681   695 1
   886   687   691 1
   887   691   695 1
   888   691   697 1
   889   683   700 1
   890   693   700 1
   891   686   693 1
   892   689   693 1
   893   689   699 1
   894   684   698 1
   895   698  1460 1
   896  1351  1432 1
   897  1398  1432 1
   898  1398  1460 1
   899  1351  1426 1
   900  1351  1416 1
   901  1351  1424 1
   902  1398  1437 1
   903  1351  1444 1
   904   685   690 1
   905   690   694 1
   906   690   700 1
   907   694   699 1
   908   688   697 1
   909   697  1464 1
   910   704   710 1
   911   725   734 1
   912   734   766 1
   913   706   714 1
   914   706   712 1
   915   706   717 1
   916   722   728 1
   917   722   731 1
   918   722   756 1
   919   722   765 1
   920   756   762 1
   921   756   765 1
   922   726   734 1
   923   726   766 1
   924   730   758 1
   925   736   742 1
   926   735   738 1
   927   735   739 1
   928   736   738 1
   929   736   741 1
   930   738   745 1
   931   739   741 1
   932   741   751 1
   933   735   737 1
   934   739   747 1
   935   737   740 1
   936   737   744 1
   937   737   743 1
   938   740   752 1
   939   740   746 1
   940   740   750 1
   941   754   767 1
   942   755   763 1
   943   755   764 1
   944   755  1536 1
   945   965  1052 1
   946   769   775 1
   947   769   850 1
   948   965  1046 1
   949   769   846 1
   950   769   848 1
   951   769   864 1
   952   769   866 1
   953   769   870 1
   954   769   965 1
   955   870   965 1
   956   965  1050 1
   957   965  1034 1
   958   965  1044 1
   959   866  1016 1
   960   770   847 1
   961   770   776 1
   962   770   865 1
   963   770   845 1
   964   770   849 1
   965   770   863 1
   966   770   869 1
   967   771   844 1
   968   771   851 1
   969   771   853 1
   970   771   861 1
   971   771   868 1
   972   794   868 1
   973   771   774 1
   974   772   854 1
   975   772   773 1
   976   772   843 1
   977   772   867 1
   978   793   867 1
   979   772   862 1
   980   772   852 1
   981   784   869 1
   982   773   854 1
   983   773   842 1
   984   773   858 1
   985   773   860 1
   986   824   858 1
   987   773   852 1
   988   774   851 1
   989   774   853 1
   990   774  1061 1
   991   774   857 1
   992   774   841 1
   993   774   859 1
   994   825   859 1
   995   825  1055 1
   996   774   962 1
   997   822   884 1
   998   775   850 1
   999   775   856 1
  1000   822   856 1
  1001   775   840 1
  1002   775   848 1
  1003   775   868 1
  1004   822   861 1
  1005   776   847 1
  1006   821   881 1
  1007   776   867 1
  1008   776   855 1
  1009   821   855 1
  1010   821   862 1
  1011   776   849 1
  1012   776   839 1
  1013   777   828 1
  1014   827   834 1
  1015   778   827 1
  1016   817   827 1
  1017   787   816 1
  1018   779   830 1
  1019   807   814 1
  1020   800   838 1
  1021   807   811 1
  1022   811   838 1
  1023   781   833 1
  1024   782   832 1
  1025   783   870 1
  1026   785   814 1
  1027   808   812 1
  1028   804   842 1
  1029   786   813 1
  1030   804   808 1
  1031   804   843 1
  1032   808   813 1
  1033   813  1195 1
  1034   788   815 1
  1035   789   810 1
  1036   790   812 1
  1037   812  1198 1
  1038   818   824 1
  1039   791  1219 1
  1040   818  1218 1
  1041  1176  1219 1
  1042  1211  1218 1
  1043  1218  1219 1
  1044   792   835 1
  1045   834   835 1
  1046   795   836 1
  1047   803   844 1
  1048   803   807 1
  1049   803   841 1
  1050   796   836 1
  1051   797   837 1
  1052   801   805 1
  1053   801   845 1
  1054   801   839 1
  1055   798   837 1
  1056   799   838 1
  1057   914   923 1
  1058   914   948 1
  1059   914   957 1
  1060   914   920 1
  1061   806   816 1
  1062   806   810 1
  1063   802   806 1
  1064   802   840 1
  1065   802   846 1
  1066   805   809 1
  1067   809   837 1
  1068   805   815 1
  1069   819   825 1
  1070   831   836 1
  1071   819   831 1
  1072   820   826 1
  1073   820   830 1
  1074   820  1024 1
  1075   826  1052 1
  1076   826   864 1
  1077  1019  1026 1
  1078   823   857 1
  1079   823  1009 1
  1080   823  1057 1
  1081   833  1009 1
  1082  1009  1019 1
  1083  1016  1050 1
  1084   828  1010 1
  1085  1010  1016 1
  1086  1010  1410 1
  1087  1410  1411 1
  1088   828  1217 1
  1089   927   930 1
  1090   929   932 1
  1091   927   929 1
  1092   929   935 1
  1093   929   936 1
  1094   927   931 1
  1095   893   895 1
  1096   893   898 1
  1097   893   899 1
  1098   898   906 1
  1099   898   909 1
  1100   898   904 1
  1101   899   910 1
  1102   886   891 1
  1103   871   886 1
  1104   873   887 1
  1105   879   883 1
  1106   883   887 1
  1107   887  1274 1
  1108   883   889 1
  1109   931   933 1
  1110   881   885 1
  1111   931   939 1
  1112   874   891 1
  1113   881   891 1
  1114   875   892 1
  1115   877   882 1
  1116   882   892 1
  1117   882   886 1
  1118   876   890 1
  1119   885   892 1
  1120   878   885 1
  1121   880   889 1
  1122   896   902 1
  1123   894   896 1
  1124   894  1091 1
  1125  1085  1091 1
  1126  1091  1102 1
  1127   896  1087 1
  1128  1085  1087 1
  1129  1085  1090 1
  1130   894   900 1
  1131   900   908 1
  1132   897   900 1
  1133   897   903 1
  1134   897   905 1
  1135   897   907 1
  1136   900   911 1
  1137   901  1087 1
  1138   926  1488 1
  1139  1147  1491 1
  1140   926   958 1
  1141   926  1332 1
  1142  1147  1501 1
  1143  1488  1501 1
  1144   926  1298 1
  1145   926  1341 1
  1146   912   925 1
  1147   915   925 1
  1148   913   921 1
  1149   913   922 1
  1150   913   946 1
  1151   922   950 1
  1152   913   919 1
  1153   913   959 1
  1154   921   959 1
  1155   946   959 1
  1156   947   956 1
  1157   916   947 1
  1158   916   952 1
  1159   916  1309 1
  1160   947   955 1
  1161   947  1299 1
  1162   947  1309 1
  1163   955  1299 1
  1164   955  1309 1
  1165  1296  1309 1
  1166  1299  1309 1
  1167   947  1337 1
  1168   917   926 1
  1169   918   926 1
  1170   958  1488 1
  1171  1332  1488 1
  1172  1332  1338 1
  1173   918   958 1
  1174   958  1332 1
  1175  1108  1144 1
  1176  1108  1501 1
  1177  1108  1139 1
  1178  1332  1341 1
  1179   919   946 1
  1180   919   959 1
  1181   930   937 1
  1182   949   959 1
  1183  1298  1307 1
  1184  1298  1332 1
  1185   924  1298 1
  1186   924  1341 1
  1187  1298  1341 1
  1188  1298  1304 1
  1189   928   930 1
  1190   934   941 1
  1191   928   933 1
  1192   928   934 1
  1193   933   943 1
  1194   934   940 1
  1195   934   945 1
  1196   932   938 1
  1197   932   942 1
  1198   932   944 1
  1199   948  1104 1
  1200   954  1104 1
  1201   948   954 1
  1202   948   957 1
  1203  1105  1138 1
  1204  1105  1114 1
  1205   951  1113 1
  1206   951  1151 1
  1207  1105  1113 1
  1208  1105  1151 1
  1209  1113  1151 1
  1210  1141  1151 1
  1211  1105  1111 1
  1212   961  1056 1
  1213   967  1048 1
  1214   967  1060 1
  1215   967  1032 1
  1216   961   967 1
  1217   961  1038 1
  1218   961  1040 1
  1219   961  1042 1
  1220   961  1062 1
  1221   967  1040 1
  1222   967  1042 1
  1223   975  1062 1
  1224   961  1058 1
  1225   962  1061 1
  1226   962   968 1
  1227   962  1039 1
  1228   962  1041 1
  1229   993  1031 1
  1230   962  1057 1
  1231   993   997 1
  1232   962  1055 1
  1233   962  1037 1
  1234   993  1037 1
  1235   963  1060 1
  1236   963  1036 1
  1237   963  1053 1
  1238   963   966 1
  1239   963  1043 1
  1240   963  1045 1
  1241   966  1043 1
  1242   966  1045 1
  1243   966  1049 1
  1244   966  1033 1
  1245   966  1051 1
  1246   964  1046 1
  1247   964  1054 1
  1248   964   965 1
  1249   964  1035 1
  1250   964  1044 1
  1251   964  1059 1
  1252   968  1031 1
  1253   968  1039 1
  1254   968  1041 1
  1255   968  1047 1
  1256   968  1059 1
  1257   985  1059 1
  1258   969  1020 1
  1259  1020  1409 1
  1260   970  1019 1
  1261   980  1007 1
  1262   971  1022 1
  1263  1012  1018 1
  1264  1012  1022 1
  1265  1018  1056 1
  1266   973  1025 1
  1267   991  1030 1
  1268   992  1030 1
  1269   974  1024 1
  1270   982  1004 1
  1271  1004  1390 1
  1272   976  1061 1
  1273   995  1036 1
  1274   999  1003 1
  1275   977  1006 1
  1276   995   999 1
  1277   999  1006 1
  1278   995  1033 1
  1279  1000  1004 1
  1280  1005  1387 1
  1281   978  1005 1
  1282  1000  1005 1
  1283   981  1002 1
  1284   994   998 1
  1285   994  1032 1
  1286   994  1038 1
  1287   983  1411 1
  1288  1368  1411 1
  1289   984  1027 1
  1290   986  1060 1
  1291  1086  1088 1
  1292  1086  1092 1
  1293  1092  1100 1
  1294  1092  1103 1
  1295  1088  1094 1
  1296   987  1028 1
  1297   988  1028 1
  1298  1011  1017 1
  1299  1011  1023 1
  1300   989  1029 1
  1301   990  1029 1
  1302   996  1034 1
  1303   996  1035 1
  1304   996  1000 1
  1305   997  1007 1
  1306   997  1001 1
  1307  1001  1029 1
  1308   998  1002 1
  1309   998  1008 1
  1310  1003  1030 1
  1311  1077  1084 1
  1312  1013  1054 1
  1313  1013  1073 1
  1314  1070  1077 1
  1315  1073  1077 1
  1316  1073  1083 1
  1317  1013  1047 1
  1318  1015  1049 1
  1319  1017  1051 1
  1320  1089  1092 1
  1321  1023  1028 1
  1322  1089  1095 1
  1323  1089  1097 1
  1324  1089  1099 1
  1325  1026  1027 1
  1326  1063  1078 1
  1327  1066  1083 1
  1328  1064  1080 1
  1329  1065  1079 1
  1330  1079  1466 1
  1331  1067  1084 1
  1332  1069  1074 1
  1333  1074  1078 1
  1334  1074  1084 1
  1335  1078  1083 1
  1336  1068  1082 1
  1337  1071  1075 1
  1338  1075  1079 1
  1339  1075  1081 1
  1340  1072  1081 1
  1341  1090  1098 1
  1342  1090  1096 1
  1343  1090  1101 1
  1344  1491  1501 1
  1345  1109  1118 1
  1346  1118  1150 1
  1347  1118  1490 1
  1348  1118  1524 1
  1349  1150  1524 1
  1350  1118  1533 1
  1351  1104  1117 1
  1352  1106  1112 1
  1353  1106  1115 1
  1354  1106  1140 1
  1355  1106  1149 1
  1356  1140  1146 1
  1357  1140  1149 1
  1358  1107  1117 1
  1359  1110  1118 1
  1360  1110  1150 1
  1361  1111  1138 1
  1362  1120  1126 1
  1363  1111  1151 1
  1364  1119  1122 1
  1365  1119  1123 1
  1366  1120  1122 1
  1367  1120  1125 1
  1368  1122  1129 1
  1369  1123  1125 1
  1370  1125  1135 1
  1371  1119  1121 1
  1372  1123  1131 1
  1373  1114  1142 1
  1374  1375  1414 1
  1375  1116  1490 1
  1376  1490  1499 1
  1377  1490  1524 1
  1378  1524  1530 1
  1379  1116  1533 1
  1380  1490  1496 1
  1381  1490  1533 1
  1382  1524  1533 1
  1383  1121  1124 1
  1384  1121  1128 1
  1385  1121  1127 1
  1386  1124  1136 1
  1387  1124  1130 1
  1388  1124  1134 1
  1389  1126  1132 1
  1390  1126  1133 1
  1391  1126  1137 1
  1392  1139  1147 1
  1393  1139  1491 1
  1394  1139  1148 1
  1395  1139  1501 1
  1396  1139  1529 1
  1397  1152  1489 1
  1398  1152  1498 1
  1399  1152  1526 1
  1400  1498  1526 1
  1401  1152  1522 1
  1402  1153  1234 1
  1403  1349  1430 1
  1404  1153  1230 1
  1405  1153  1248 1
  1406  1153  1250 1
  1407  1153  1254 1
  1408  1153  1349 1
  1409  1210  1248 1
  1410  1210  1436 1
  1411  1250  1400 1
  1412  1254  1349 1
  1413  1349  1434 1
  1414  1349  1436 1
  1415  1400  1434 1
  1416  1349  1418 1
  1417  1153  1159 1
  1418  1153  1232 1
  1419  1349  1428 1
  1420  1154  1229 1
  1421  1154  1231 1
  1422  1154  1249 1
  1423  1154  1233 1
  1424  1154  1253 1
  1425  1168  1253 1
  1426  1154  1160 1
  1427  1154  1247 1
  1428  1159  1234 1
  1429  1159  1224 1
  1430  1206  1268 1
  1431  1155  1235 1
  1432  1155  1245 1
  1433  1155  1252 1
  1434  1159  1240 1
  1435  1159  1252 1
  1436  1178  1252 1
  1437  1206  1240 1
  1438  1206  1245 1
  1439  1159  1232 1
  1440  1155  1228 1
  1441  1155  1237 1
  1442  1155  1158 1
  1443  1156  1238 1
  1444  1156  1157 1
  1445  1156  1227 1
  1446  1156  1251 1
  1447  1177  1251 1
  1448  1156  1246 1
  1449  1156  1236 1
  1450  1157  1238 1
  1451  1157  1226 1
  1452  1157  1244 1
  1453  1157  1236 1
  1454  1157  1242 1
  1455  1158  1235 1
  1456  1158  1241 1
  1457  1158  1225 1
  1458  1158  1237 1
  1459  1158  1243 1
  1460  1158  1445 1
  1461  1209  1243 1
  1462  1209  1439 1
  1463  1158  1346 1
  1464  1160  1251 1
  1465  1160  1239 1
  1466  1160  1231 1
  1467  1182  1221 1
  1468  1160  1233 1
  1469  1160  1223 1
  1470  1264  1273 1
  1471  1161  1212 1
  1472  1162  1211 1
  1473  1201  1211 1
  1474  1171  1200 1
  1475  1163  1214 1
  1476  1191  1198 1
  1477  1165  1217 1
  1478  1191  1195 1
  1479  1166  1216 1
  1480  1167  1254 1
  1481  1315  1317 1
  1482  1169  1198 1
  1483  1315  1323 1
  1484  1188  1226 1
  1485  1170  1197 1
  1486  1174  1196 1
  1487  1188  1192 1
  1488  1188  1227 1
  1489  1192  1196 1
  1490  1192  1197 1
  1491  1189  1193 1
  1492  1172  1199 1
  1493  1189  1199 1
  1494  1202  1208 1
  1495  1179  1220 1
  1496  1180  1220 1
  1497  1181  1221 1
  1498  1183  1222 1
  1499  1184  1222 1
  1500  1195  1222 1
  1501  1185  1229 1
  1502  1193  1221 1
  1503  1185  1223 1
  1504  1185  1189 1
  1505  1186  1190 1
  1506  1186  1224 1
  1507  1186  1230 1
  1508  1187  1191 1
  1509  1187  1225 1
  1510  1187  1228 1
  1511  1203  1209 1
  1512  1215  1220 1
  1513  1203  1215 1
  1514  1204  1214 1
  1515  1204  1408 1
  1516  1204  1210 1
  1517  1205  1265 1
  1518  1205  1239 1
  1519  1205  1246 1
  1520  1403  1410 1
  1521  1207  1241 1
  1522  1207  1393 1
  1523  1207  1441 1
  1524  1217  1393 1
  1525  1393  1403 1
  1526  1208  1242 1
  1527  1282  1290 1
  1528  1282  1288 1
  1529  1282  1293 1
  1530  1394  1400 1
  1531  1212  1394 1
  1532  1259  1276 1
  1533  1261  1266 1
  1534  1266  1276 1
  1535  1270  1275 1
  1536  1255  1270 1
  1537  1266  1270 1
  1538  1257  1271 1
  1539  1265  1269 1
  1540  1258  1275 1
  1541  1265  1275 1
  1542  1260  1274 1
  1543  1262  1269 1
  1544  1263  1267 1
  1545  1267  1271 1
  1546  1267  1273 1
  1547  1318  1325 1
  1548  1312  1317 1
  1549  1312  1318 1
  1550  1317  1327 1
  1551  1318  1324 1
  1552  1318  1329 1
  1553  1269  1276 1
  1554  1312  1314 1
  1555  1277  1279 1
  1556  1277  1282 1
  1557  1277  1283 1
  1558  1283  1294 1
  1559  1300  1331 1
  1560  1300  1336 1
  1561  1278  1280 1
  1562  1281  1287 1
  1563  1278  1284 1
  1564  1278  1475 1
  1565  1281  1284 1
  1566  1281  1289 1
  1567  1281  1291 1
  1568  1284  1292 1
  1569  1284  1295 1
  1570  1475  1486 1
  1571  1280  1286 1
  1572  1280  1471 1
  1573  1469  1471 1
  1574  1469  1474 1
  1575  1469  1475 1
  1576  1285  1471 1
  1577  1301  1310 1
  1578  1302  1310 1
  1579  1302  1342 1
  1580  1303  1330 1
  1581  1303  1343 1
  1582  1333  1343 1
  1583  1310  1342 1
  1584  1492  1528 1
  1585  1492  1523 1
  1586  1314  1321 1
  1587  1313  1316 1
  1588  1311  1315 1
  1589  1311  1313 1
  1590  1311  1314 1
  1591  1313  1319 1
  1592  1313  1320 1
  1593  1316  1322 1
  1594  1316  1326 1
  1595  1316  1328 1
  1596  1331  1340 1
  1597  1331  1339 1
  1598  1338  1488 1
  1599  1345  1351 1
  1600  1345  1426 1
  1601  1345  1422 1
  1602  1345  1424 1
  1603  1345  1440 1
  1604  1345  1442 1
  1605  1345  1446 1
  1606  1346  1423 1
  1607  1346  1352 1
  1608  1346  1441 1
  1609  1377  1381 1
  1610  1346  1439 1
  1611  1346  1445 1
  1612  1346  1421 1
  1613  1346  1425 1
  1614  1377  1415 1
  1615  1377  1421 1
  1616  1347  1420 1
  1617  1347  1437 1
  1618  1347  1427 1
  1619  1347  1429 1
  1620  1347  1444 1
  1621  1370  1444 1
  1622  1347  1350 1
  1623  1348  1430 1
  1624  1348  1349 1
  1625  1348  1419 1
  1626  1352  1423 1
  1627  1397  1457 1
  1628  1348  1438 1
  1629  1348  1443 1
  1630  1352  1431 1
  1631  1352  1443 1
  1632  1369  1443 1
  1633  1397  1431 1
  1634  1397  1438 1
  1635  1348  1428 1
  1636  1352  1415 1
  1637  1352  1425 1
  1638  1350  1427 1
  1639  1350  1429 1
  1640  1350  1433 1
  1641  1350  1417 1
  1642  1350  1435 1
  1643  1401  1435 1
  1644  1372  1412 1
  1645  1353  1404 1
  1646  1354  1403 1
  1647  1355  1406 1
  1648  1396  1402 1
  1649  1396  1406 1
  1650  1402  1440 1
  1651  1376  1414 1
  1652  1357  1409 1
  1653  1358  1408 1
  1654  1366  1388 1
  1655  1359  1446 1
  1656  1360  1445 1
  1657  1379  1420 1
  1658  1379  1383 1
  1659  1361  1390 1
  1660  1379  1417 1
  1661  1362  1389 1
  1662  1363  1392 1
  1663  1364  1391 1
  1664  1382  1392 1
  1665  1365  1386 1
  1666  1378  1382 1
  1667  1378  1416 1
  1668  1382  1386 1
  1669  1378  1422 1
  1670  1395  1401 1
  1671  1371  1412 1
  1672  1395  1407 1
  1673  1407  1412 1
  1674  1373  1413 1
  1675  1374  1413 1
  1676  1384  1388 1
  1677  1380  1384 1
  1678  1380  1418 1
  1679  1380  1419 1
  1680  1384  1389 1
  1681  1381  1385 1
  1682  1385  1413 1
  1683  1381  1391 1
  1684  1383  1387 1
  1685  1387  1414 1
  1686  1383  1390 1
  1687  1399  1433 1
  1688  1503  1506 1
  1689  1507  1509 1
  1690  1505  1508 1
  1691  1507  1515 1
  1692  1505  1512 1
  1693  1503  1505 1
  1694  1503  1507 1
  1695  1505  1511 1
  1696  1455  1459 1
  1697  1474  1482 1
  1698  1474  1485 1
  1699  1449  1463 1
  1700  1459  1463 1
  1701  1474  1480 1
  1702  1459  1465 1
  1703  1457  1461 1
  1704  1447  1462 1
  1705  1450  1467 1
  1706  1457  1467 1
  1707  1462  1467 1
  1708  1448  1464 1
  1709  1451  1468 1
  1710  1453  1458 1
  1711  1458  1468 1
  1712  1458  1462 1
  1713  1452  1466 1
  1714  1461  1468 1
  1715  1454  1461 1
  1716  1456  1465 1
  1717  1470  1472 1
  1718  1472  1478 1
  1719  1470  1476 1
  1720  1473  1476 1
  1721  1473  1479 1
  1722  1473  1481 1
  1723  1473  1483 1
  1724  1476  1484 1
  1725  1476  1487 1
  1726  1493  1502 1
  1727  1502  1534 1
  1728  1494  1502 1
  1729  1494  1534 1
  1730  1495  1522 1
  1731  1495  1535 1
  1732  1504  1506 1
  1733  1504  1509 1
  1734  1504  1510 1
  1735  1506  1513 1
  1736  1510  1516 1
  1737  1510  1517 1
  1738  1510  1521 1
  1739  1509  1519 1
  1740  1508  1514 1
  1741  1508  1520 1
  1742  1508  1518 1
  1743  1523  1532 1
  1744  1523  1531 1
