@<TRIPOS>MOLECULE
frame0031
 1536 1590 0 0 0
SMALL
NO_CHARGES

@<TRIPOS>ATOM
      1 Ti1         -2.8554     2.2298    11.2464 Ti        1 MOL       0.0000
      2 Ti2          7.9750     5.1110     1.8816 Ti        1 MOL       0.0000
      3 Ti3          1.2412    -1.7064     9.4264 Ti        1 MOL       0.0000
      4 Ti4          2.7524     7.4557     3.6534 Ti        1 MOL       0.0000
      5 Ti5          1.7539     9.1340     1.7490 Ti        1 MOL       0.0000
      6 Ti6          3.1294    -1.9608    11.3798 Ti        1 MOL       0.0000
      7 Ti7         -1.9062     0.4939     9.3549 Ti        1 MOL       0.0000
      8 Ti8          5.9872     5.4135     3.7290 Ti        1 MOL       0.0000
      9 H1          -2.3536     6.1269    11.0269 H         1 MOL       0.0000
     10 H2           8.7838     1.2049     2.2023 H         1 MOL       0.0000
     11 H3          -6.8153     1.4731    10.8640 H         1 MOL       0.0000
     12 H4          11.3572     7.1153     2.0822 H         1 MOL       0.0000
     13 H5           4.1051    -5.9953    10.9939 H         1 MOL       0.0000
     14 H6          -2.3047     8.5441     2.0711 H         1 MOL       0.0000
     15 H7          -2.3867     0.4312    12.9709 H         1 MOL       0.0000
     16 H8           6.0995     4.8683     0.1817 H         1 MOL       0.0000
     17 H9           3.6394    -2.6279     5.8687 H         1 MOL       0.0000
     18 H10          1.0290     9.2927     7.2723 H         1 MOL       0.0000
     19 H11         -5.9789     3.8825     8.9990 H         1 MOL       0.0000
     20 H12         10.7298     3.0266     4.1876 H         1 MOL       0.0000
     21 H13         -3.6778     2.4351     5.6652 H         1 MOL       0.0000
     22 H14         -1.3462    10.9619     4.1022 H         1 MOL       0.0000
     23 H15          2.1461    12.2368     2.6045 H         1 MOL       0.0000
     24 H16          8.6260    -0.8139     3.4048 H         1 MOL       0.0000
     25 H17          4.8451     7.1358     2.3148 H         1 MOL       0.0000
     26 H18          0.1606     0.1420    10.7200 H         1 MOL       0.0000
     27 H19          7.3642    -0.0259     9.7695 H         1 MOL       0.0000
     28 H20          5.8831    -0.4950    10.5168 H         1 MOL       0.0000
     29 H21          7.9383     4.4077     8.6706 H         1 MOL       0.0000
     30 H22          7.3686     4.7663     7.0520 H         1 MOL       0.0000
     31 H23          6.8754    -4.9808     9.5794 H         1 MOL       0.0000
     32 H24          5.5962    -3.8802    10.0368 H         1 MOL       0.0000
     33 C1           8.5531     4.3697     4.7451 C         1 MOL       0.0000
     34 C2          -3.8160     2.4911     8.3994 C         1 MOL       0.0000
     35 C3           3.8218    -2.7171     8.5017 C         1 MOL       0.0000
     36 C4           0.8163     9.4262     4.6128 C         1 MOL       0.0000
     37 C5           9.4491     3.7654     5.7403 C         1 MOL       0.0000
     38 C6          -4.7479     3.1162     7.4223 C         1 MOL       0.0000
     39 C7           4.7619    -3.3315     7.5545 C         1 MOL       0.0000
     40 C8          -0.0735    10.0730     5.6125 C         1 MOL       0.0000
     41 C9           9.2003     3.8403     7.1467 C         1 MOL       0.0000
     42 C10         -4.5315     2.9962     6.0343 C         1 MOL       0.0000
     43 C11          5.8914    -4.0918     8.0076 C         1 MOL       0.0000
     44 C12         -1.1682    10.8460     5.1676 C         1 MOL       0.0000
     45 C13          0.1810     9.9023     6.9674 C         1 MOL       0.0000
     46 C14          4.5142    -3.1993     6.1706 C         1 MOL       0.0000
     47 C15         10.5828     3.0664     5.2646 C         1 MOL       0.0000
     48 C16         -5.8480     3.8086     7.9210 C         1 MOL       0.0000
     49 C17          8.7648     1.2840     0.0582 C         1 MOL       0.0000
     50 C18          2.2951    13.0756     0.0832 C         1 MOL       0.0000
     51 C19          6.6143    -0.0189    13.0272 C         1 MOL       0.0000
     52 C20         -6.7440     1.5235    13.0078 C         1 MOL       0.0000
     53 C21          3.4992     5.1125     5.6180 C         1 MOL       0.0000
     54 C22         -1.2569    -1.9819     7.5361 C         1 MOL       0.0000
     55 C23          3.9940    -4.3272    13.1300 C         1 MOL       0.0000
     56 C24          2.2024    11.6421     0.0457 C         1 MOL       0.0000
     57 C25          5.3165    -0.6357    13.0740 C         1 MOL       0.0000
     58 C26         -5.3417     1.9379    13.0323 C         1 MOL       0.0000
     59 C27          8.8042     0.6149     1.2879 C         1 MOL       0.0000
     60 C28         -2.3426     6.7153    11.9408 C         1 MOL       0.0000
     61 C29         -4.0954     7.8789     1.0761 C         1 MOL       0.0000
     62 C30         -7.3768     1.2938    11.7793 C         1 MOL       0.0000
     63 C31          7.3089     0.2494    11.7938 C         1 MOL       0.0000
     64 C32         -2.8062     8.3591     1.1253 C         1 MOL       0.0000
     65 C33          4.1467    -6.5225    11.9429 C         1 MOL       0.0000
     66 C34          8.8259    -0.7862     1.3695 C         1 MOL       0.0000
     67 N1           8.8810    -1.3851     2.6076 N         1 MOL       0.0000
     68 N2           6.7299     0.0665    10.5548 N         1 MOL       0.0000
     69 N3           8.1195     4.4866     7.6780 N         1 MOL       0.0000
     70 N4           6.2224    -4.2500     9.3250 N         1 MOL       0.0000
     71 O1           7.3768     4.7748     5.1109 O         1 MOL       0.0000
     72 O2          -3.0470     1.5403     8.0011 O         1 MOL       0.0000
     73 O3           4.2032    -2.5927     9.7228 O         1 MOL       0.0000
     74 O4           0.7505     9.8559     3.4131 O         1 MOL       0.0000
     75 O5           1.5868     8.4690     4.9992 O         1 MOL       0.0000
     76 O6           2.6513    -2.3487     8.0962 O         1 MOL       0.0000
     77 O7           8.9650     4.4505     3.5334 O         1 MOL       0.0000
     78 O8          -3.8580     2.9274     9.5991 O         1 MOL       0.0000
     79 O9           6.2924     4.1956     2.5344 O         1 MOL       0.0000
     80 O10         -1.3538     2.0542    10.0994 O         1 MOL       0.0000
     81 O11          7.2312     6.4829     2.9843 O         1 MOL       0.0000
     82 O12         -3.1060     0.3295    10.5921 O         1 MOL       0.0000
     83 O13          1.5006    -2.8784    10.6868 O         1 MOL       0.0000
     84 O14          3.2690     9.0170     2.9149 O         1 MOL       0.0000
     85 O15          2.4545    -0.6169    10.2227 O         1 MOL       0.0000
     86 O16          1.5628     7.2599     2.3975 O         1 MOL       0.0000
     87 O17          4.7203     4.9326     5.2637 O         1 MOL       0.0000
     88 O18         -1.9146    -0.9469     7.9143 O         1 MOL       0.0000
     89 O19          3.8718    -3.7326    11.9889 O         1 MOL       0.0000
     90 O20          2.1193    10.9406     1.1409 O         1 MOL       0.0000
     91 O21          4.6739    -0.9445    11.9838 O         1 MOL       0.0000
     92 O22         -0.1167     9.1049     1.0808 O         1 MOL       0.0000
     93 O23         -0.0951    -2.2764     7.9939 O         1 MOL       0.0000
     94 O24          2.7573     6.0334     5.1246 O         1 MOL       0.0000
     95 O25          9.4121     6.1301     1.1270 O         1 MOL       0.0000
     96 O26         -4.7422     2.1697    11.9148 O         1 MOL       0.0000
     97 O27          8.6166     3.3758     1.1564 O         1 MOL       0.0000
     98 O28         -2.4740     3.9521    11.9961 O         1 MOL       0.0000
     99 O29          4.4842     6.5871     3.0354 O         1 MOL       0.0000
    100 O30         -0.2177    -0.4167    10.0165 O         1 MOL       0.0000
    101 O31          6.9383     5.3620     0.1026 O         1 MOL       0.0000
    102 O32         -2.2643     1.3980    13.0309 O         1 MOL       0.0000
    103 H25          3.7888     1.5098     8.5658 H         1 MOL       0.0000
    104 H26         -6.6034    10.6524     6.0563 H         1 MOL       0.0000
    105 H27          4.4265    10.0873     5.7962 H         1 MOL       0.0000
    106 H28          4.7129     2.9917     6.7637 H         1 MOL       0.0000
    107 H29          0.2193     3.9117     8.7042 H         1 MOL       0.0000
    108 H30         12.1162    -2.7089     7.1135 H         1 MOL       0.0000
    109 H31          1.5294     1.9435     9.4668 H         1 MOL       0.0000
    110 H32          1.1514     5.4004     6.9105 H         1 MOL       0.0000
    111 H33          5.7567     8.3178     4.6711 H         1 MOL       0.0000
    112 H34          8.2315     8.3201     4.8098 H         1 MOL       0.0000
    113 C35          2.9717     4.2643     6.7127 C         1 MOL       0.0000
    114 C36          1.9453     2.6149     8.7182 C         1 MOL       0.0000
    115 C37          6.2647     9.0968     5.2392 C         1 MOL       0.0000
    116 C38         -1.9218    -2.9655     6.6541 C         1 MOL       0.0000
    117 C39          1.7133     4.5399     7.2744 C         1 MOL       0.0000
    118 C40          3.2184     2.3606     8.1964 C         1 MOL       0.0000
    119 C41          5.5132    10.0993     5.8618 C         1 MOL       0.0000
    120 C42         -7.6868    10.6416     5.9660 C         1 MOL       0.0000
    121 C43          7.6622     9.0961     5.3175 C         1 MOL       0.0000
    122 C44         12.6773    -3.5027     6.6262 C         1 MOL       0.0000
    123 C45          3.7350     3.1871     7.1988 C         1 MOL       0.0000
    124 C46          1.1984     3.7127     8.2719 C         1 MOL       0.0000
    125 N5           5.3261    10.6108     1.3278 N         1 MOL       0.0000
    126 N6           1.9377     2.4188    13.0269 N         1 MOL       0.0000
    127 C47          5.0991    11.1091     0.0578 C         1 MOL       0.0000
    128 C48          1.2230     3.3368    12.2699 C         1 MOL       0.0000
    129 C49          4.2033     2.5274    12.0088 C         1 MOL       0.0000
    130 C50          4.9464    11.2798     2.5836 C         1 MOL       0.0000
    131 C51          6.2486     9.6330     1.2356 C         1 MOL       0.0000
    132 C52          3.0748     1.6312    12.5153 C         1 MOL       0.0000
    133 H35         -0.1083     4.9375    12.9864 H         1 MOL       0.0000
    134 H36          1.3383     3.4329    11.1956 H         1 MOL       0.0000
    135 H37          3.8546     3.1571    11.1794 H         1 MOL       0.0000
    136 H38          4.8977    12.3499     2.3814 H         1 MOL       0.0000
    137 H39          4.5961     3.1936    12.7932 H         1 MOL       0.0000
    138 H40          4.0098    10.8693     2.9462 H         1 MOL       0.0000
    139 H41          5.0215     1.9032    11.6223 H         1 MOL       0.0000
    140 H42          2.6953     0.9732    11.7246 H         1 MOL       0.0000
    141 H43          5.7430    11.1147     3.3050 H         1 MOL       0.0000
    142 H44          6.7214     9.0991     2.0363 H         1 MOL       0.0000
    143 H45          8.0377     8.0672     0.2522 H         1 MOL       0.0000
    144 N7           8.8272    -7.3236    12.8884 N         1 MOL       0.0000
    145 C53          1.0497     0.5409     1.1363 C         1 MOL       0.0000
    146 C54          9.8031    -5.0476     9.5264 C         1 MOL       0.0000
    147 O33         -1.8551     0.4995     2.7819 O         1 MOL       0.0000
    148 O34         -6.2973    12.5172     1.3007 O         1 MOL       0.0000
    149 O35          1.3388     6.3756    10.4023 O         1 MOL       0.0000
    150 O36          3.3121     6.6171     8.8726 O         1 MOL       0.0000
    151 F1           0.7267     1.3299     2.2411 F         1 MOL       0.0000
    152 F2           9.6019    -2.9577    11.6795 F         1 MOL       0.0000
    153 F3           2.1743     1.1421     0.6356 F         1 MOL       0.0000
    154 F4          -0.3616     0.2505     4.4774 F         1 MOL       0.0000
    155 F5           9.3127    -3.8089     9.4985 F         1 MOL       0.0000
    156 F6           2.7874     8.9732     8.3161 F         1 MOL       0.0000
    157 S1          14.3125    -0.8396     0.8266 S         1 MOL       0.0000
    158 S2           2.7147     6.7589    10.1845 S         1 MOL       0.0000
    159 N8           3.5481     1.5896     3.6163 N         1 MOL       0.0000
    160 N9           1.7184     2.3581     4.5226 N         1 MOL       0.0000
    161 C55          4.7297     1.4903     2.7331 C         1 MOL       0.0000
    162 C56          2.6270     2.5672     3.5530 C         1 MOL       0.0000
    163 C57          3.2304     0.7324     4.6585 C         1 MOL       0.0000
    164 C58          4.9312     0.1142     2.1035 C         1 MOL       0.0000
    165 C59          2.0845     1.2221     5.2194 C         1 MOL       0.0000
    166 C60          0.4364     3.0583     4.6470 C         1 MOL       0.0000
    167 H46          5.6048     1.7940     3.3231 H         1 MOL       0.0000
    168 H47          4.6047     2.2637     1.9678 H         1 MOL       0.0000
    169 H48          2.5667     3.3283     2.7947 H         1 MOL       0.0000
    170 H49          5.9301     0.1001     1.6475 H         1 MOL       0.0000
    171 H50          3.8189    -0.1368     4.8916 H         1 MOL       0.0000
    172 H51          0.3071     3.3717     5.6831 H         1 MOL       0.0000
    173 H52          0.4515     3.9331     3.9872 H         1 MOL       0.0000
    174 H53          4.8804    -0.6856     2.8517 H         1 MOL       0.0000
    175 H54          1.4813     0.8162     6.0174 H         1 MOL       0.0000
    176 H55          4.1761    -0.1098     1.3444 H         1 MOL       0.0000
    177 H56         -0.3601     2.3710     4.3445 H         1 MOL       0.0000
    178 N10          0.0083     0.5184     0.1655 N         1 MOL       0.0000
    179 C61         -1.5899    -0.1595     3.8609 C         1 MOL       0.0000
    180 C62          9.4946    -5.9214    10.8039 C         1 MOL       0.0000
    181 O37         -4.6381    -4.0148    12.7042 O         1 MOL       0.0000
    182 O38          1.8111    -1.3845     3.1098 O         1 MOL       0.0000
    183 O39         -3.6856    -5.7397    11.0809 O         1 MOL       0.0000
    184 O40         -3.9972    13.0285     0.6819 O         1 MOL       0.0000
    185 F7          -2.5030     0.0603     4.8882 F         1 MOL       0.0000
    186 F8           8.2875    -5.5368    11.2727 F         1 MOL       0.0000
    187 F9           6.8714    12.4069     1.4188 F         1 MOL       0.0000
    188 F10         -1.4661    -1.5052     3.7459 F         1 MOL       0.0000
    189 F11         11.1416    -5.0097     9.3474 F         1 MOL       0.0000
    190 F12          3.7041     5.7855    11.0838 F         1 MOL       0.0000
    191 S3          -4.6566    -5.3299    12.0667 S         1 MOL       0.0000
    192 S4          -5.0791    13.2719     1.6227 S         1 MOL       0.0000
    193 Ti9         -7.4904    -4.8362    24.3414 Ti        1 MOL       0.0000
    194 Ti10         3.3400    -1.9550    14.9766 Ti        1 MOL       0.0000
    195 Ti11        -3.3938    -8.7724    22.5214 Ti        1 MOL       0.0000
    196 Ti12        -1.8826     0.3897    16.7484 Ti        1 MOL       0.0000
    197 Ti13        -2.8811     2.0680    14.8440 Ti        1 MOL       0.0000
    198 Ti14        -1.5056    -9.0268    24.4748 Ti        1 MOL       0.0000
    199 Ti15        -6.5412    -6.5721    22.4499 Ti        1 MOL       0.0000
    200 Ti16         1.3522    -1.6525    16.8240 Ti        1 MOL       0.0000
    201 H57         -6.9886    -0.9391    24.1219 H         1 MOL       0.0000
    202 H58          4.1488    -5.8611    15.2973 H         1 MOL       0.0000
    203 H59        -11.4503    -5.5929    23.9590 H         1 MOL       0.0000
    204 H60          6.7222     0.0493    15.1772 H         1 MOL       0.0000
    205 H61         -0.5299   -13.0613    24.0889 H         1 MOL       0.0000
    206 H62         -6.9397     1.4781    15.1661 H         1 MOL       0.0000
    207 H63         -7.0217    -6.6348    26.0659 H         1 MOL       0.0000
    208 H64          1.4645    -2.1977    13.2767 H         1 MOL       0.0000
    209 H65         -0.9956    -9.6939    18.9637 H         1 MOL       0.0000
    210 H66         -3.6060     2.2267    20.3673 H         1 MOL       0.0000
    211 H67        -10.6139    -3.1835    22.0940 H         1 MOL       0.0000
    212 H68          6.0948    -4.0393    17.2826 H         1 MOL       0.0000
    213 H69         -8.3127    -4.6309    18.7602 H         1 MOL       0.0000
    214 H70         -5.9812     3.8959    17.1972 H         1 MOL       0.0000
    215 H71         -2.4889     5.1708    15.6995 H         1 MOL       0.0000
    216 H72          3.9910    -7.8799    16.4998 H         1 MOL       0.0000
    217 H73          0.2101     0.0698    15.4098 H         1 MOL       0.0000
    218 H74         -4.4744    -6.9240    23.8150 H         1 MOL       0.0000
    219 H75          2.7292    -7.0919    22.8645 H         1 MOL       0.0000
    220 H76          1.2481    -7.5610    23.6118 H         1 MOL       0.0000
    221 H77          3.3033    -2.6583    21.7655 H         1 MOL       0.0000
    222 H78          2.7336    -2.2997    20.1470 H         1 MOL       0.0000
    223 H79          2.2404   -12.0468    22.6744 H         1 MOL       0.0000
    224 H80          0.9612   -10.9462    23.1318 H         1 MOL       0.0000
    225 C63          3.9181    -2.6963    17.8401 C         1 MOL       0.0000
    226 C64         -8.4510    -4.5749    21.4944 C         1 MOL       0.0000
    227 C65         -0.8132    -9.7831    21.5967 C         1 MOL       0.0000
    228 C66         -3.8187     2.3602    17.7078 C         1 MOL       0.0000
    229 C67          4.8141    -3.3006    18.8353 C         1 MOL       0.0000
    230 C68         -9.3829    -3.9498    20.5173 C         1 MOL       0.0000
    231 C69          0.1269   -10.3975    20.6495 C         1 MOL       0.0000
    232 C70         -4.7085     3.0070    18.7075 C         1 MOL       0.0000
    233 C71          4.5653    -3.2257    20.2417 C         1 MOL       0.0000
    234 C72         -9.1665    -4.0698    19.1293 C         1 MOL       0.0000
    235 C73          1.2564   -11.1578    21.1026 C         1 MOL       0.0000
    236 C74         -5.8032     3.7800    18.2626 C         1 MOL       0.0000
    237 C75         -4.4540     2.8362    20.0624 C         1 MOL       0.0000
    238 C76         -0.1208   -10.2653    19.2656 C         1 MOL       0.0000
    239 C77          5.9478    -3.9996    18.3596 C         1 MOL       0.0000
    240 C78        -10.4831    -3.2574    21.0160 C         1 MOL       0.0000
    241 C79          4.1298    -5.7820    13.1532 C         1 MOL       0.0000
    242 C80         -2.3399     6.0096    13.1782 C         1 MOL       0.0000
    243 C81          1.9793    -7.0849    26.1222 C         1 MOL       0.0000
    244 C82        -11.3790    -5.5425    26.1028 C         1 MOL       0.0000
    245 C83         -1.1358    -1.9535    18.7130 C         1 MOL       0.0000
    246 C84         -5.8919    -9.0479    20.6311 C         1 MOL       0.0000
    247 C85         -0.6410   -11.3932    26.2250 C         1 MOL       0.0000
    248 C86         -2.4326     4.5761    13.1407 C         1 MOL       0.0000
    249 C87          0.6815    -7.7017    26.1690 C         1 MOL       0.0000
    250 C88         -9.9767    -5.1281    26.1273 C         1 MOL       0.0000
    251 C89          4.1692    -6.4511    14.3829 C         1 MOL       0.0000
    252 C90         -6.9776    -0.3507    25.0358 C         1 MOL       0.0000
    253 C91         -8.7304     0.8129    14.1711 C         1 MOL       0.0000
    254 C92        -12.0118    -5.7722    24.8743 C         1 MOL       0.0000
    255 C93          2.6739    -6.8166    24.8888 C         1 MOL       0.0000
    256 C94         -7.4412     1.2931    14.2203 C         1 MOL       0.0000
    257 C95         -0.4883   -13.5885    25.0379 C         1 MOL       0.0000
    258 C96          4.1909    -7.8522    14.4645 C         1 MOL       0.0000
    259 N11          4.2460    -8.4511    15.7026 N         1 MOL       0.0000
    260 N12          2.0949    -6.9995    23.6498 N         1 MOL       0.0000
    261 N13          3.4845    -2.5794    20.7730 N         1 MOL       0.0000
    262 N14          1.5874   -11.3160    22.4200 N         1 MOL       0.0000
    263 O41          2.7418    -2.2912    18.2059 O         1 MOL       0.0000
    264 O42         -7.6820    -5.5257    21.0961 O         1 MOL       0.0000
    265 O43         -0.4318    -9.6587    22.8178 O         1 MOL       0.0000
    266 O44         -3.8845     2.7899    16.5082 O         1 MOL       0.0000
    267 O45         -3.0482     1.4030    18.0942 O         1 MOL       0.0000
    268 O46         -1.9837    -9.4147    21.1912 O         1 MOL       0.0000
    269 O47          4.3300    -2.6155    16.6284 O         1 MOL       0.0000
    270 O48         -8.4930    -4.1386    22.6941 O         1 MOL       0.0000
    271 O49          1.6574    -2.8704    15.6294 O         1 MOL       0.0000
    272 O50         -5.9888    -5.0118    23.1944 O         1 MOL       0.0000
    273 O51          2.5962    -0.5831    16.0793 O         1 MOL       0.0000
    274 O52         -7.7410    -6.7365    23.6871 O         1 MOL       0.0000
    275 O53         -3.1344    -9.9444    23.7818 O         1 MOL       0.0000
    276 O54         -1.3660     1.9510    16.0099 O         1 MOL       0.0000
    277 O55         -2.1805    -7.6829    23.3177 O         1 MOL       0.0000
    278 O56         -3.0722     0.1939    15.4925 O         1 MOL       0.0000
    279 O57          0.0853    -2.1334    18.3587 O         1 MOL       0.0000
    280 O58         -6.5496    -8.0129    21.0093 O         1 MOL       0.0000
    281 O59         -0.7632   -10.7986    25.0839 O         1 MOL       0.0000
    282 O60         -2.5157     3.8746    14.2359 O         1 MOL       0.0000
    283 O61          0.0389    -8.0105    25.0788 O         1 MOL       0.0000
    284 O62         -4.7517     2.0389    14.1758 O         1 MOL       0.0000
    285 O63         -4.7301    -9.3424    21.0889 O         1 MOL       0.0000
    286 O64         -1.8777    -1.0326    18.2196 O         1 MOL       0.0000
    287 O65          4.7771    -0.9359    14.2220 O         1 MOL       0.0000
    288 O66         -9.3772    -4.8963    25.0098 O         1 MOL       0.0000
    289 O67          3.9816    -3.6902    14.2514 O         1 MOL       0.0000
    290 O68         -7.1090    -3.1139    25.0911 O         1 MOL       0.0000
    291 O69         -0.1508    -0.4789    16.1304 O         1 MOL       0.0000
    292 O70         -4.8527    -7.4827    23.1115 O         1 MOL       0.0000
    293 O71          2.3033    -1.7041    13.1976 O         1 MOL       0.0000
    294 O72         -6.8993    -5.6680    26.1259 O         1 MOL       0.0000
    295 H81         -0.8462    -5.5562    21.6608 H         1 MOL       0.0000
    296 H82        -11.2384     3.5864    19.1513 H         1 MOL       0.0000
    297 H83         -0.2085     3.0213    18.8912 H         1 MOL       0.0000
    298 H84          0.0779    -4.0743    19.8587 H         1 MOL       0.0000
    299 H85         -4.4157    -3.1543    21.7992 H         1 MOL       0.0000
    300 H86          7.4812    -9.7749    20.2085 H         1 MOL       0.0000
    301 H87         -3.1056    -5.1225    22.5618 H         1 MOL       0.0000
    302 H88         -3.4836    -1.6656    20.0055 H         1 MOL       0.0000
    303 H89          1.1217     1.2518    17.7661 H         1 MOL       0.0000
    304 H90          3.5965     1.2541    17.9048 H         1 MOL       0.0000
    305 C97         -1.6633    -2.8017    19.8077 C         1 MOL       0.0000
    306 C98         -2.6897    -4.4511    21.8132 C         1 MOL       0.0000
    307 C99          1.6297     2.0308    18.3342 C         1 MOL       0.0000
    308 C100        -6.5568   -10.0315    19.7491 C         1 MOL       0.0000
    309 C101        -2.9217    -2.5261    20.3694 C         1 MOL       0.0000
    310 C102        -1.4166    -4.7054    21.2914 C         1 MOL       0.0000
    311 C103         0.8782     3.0333    18.9568 C         1 MOL       0.0000
    312 C104       -12.3218     3.5756    19.0610 C         1 MOL       0.0000
    313 C105         3.0272     2.0301    18.4125 C         1 MOL       0.0000
    314 C106         8.0423   -10.5687    19.7212 C         1 MOL       0.0000
    315 C107        -0.9000    -3.8789    20.2938 C         1 MOL       0.0000
    316 C108        -3.4366    -3.3533    21.3669 C         1 MOL       0.0000
    317 N15          0.6911     3.5448    14.4228 N         1 MOL       0.0000
    318 N16         -2.6973    -4.6472    26.1219 N         1 MOL       0.0000
    319 C109         0.4641     4.0431    13.1528 C         1 MOL       0.0000
    320 C110        -3.4120    -3.7292    25.3649 C         1 MOL       0.0000
    321 C111        -0.4317    -4.5386    25.1038 C         1 MOL       0.0000
    322 C112         0.3114     4.2138    15.6786 C         1 MOL       0.0000
    323 C113         1.6136     2.5670    14.3306 C         1 MOL       0.0000
    324 C114        -1.5602    -5.4348    25.6103 C         1 MOL       0.0000
    325 H91         -4.7433    -2.1285    26.0814 H         1 MOL       0.0000
    326 H92         -3.2967    -3.6331    24.2906 H         1 MOL       0.0000
    327 H93         -0.7804    -3.9089    24.2744 H         1 MOL       0.0000
    328 H94          0.2627     5.2839    15.4764 H         1 MOL       0.0000
    329 H95         -0.0389    -3.8724    25.8882 H         1 MOL       0.0000
    330 H96         -0.6252     3.8033    16.0412 H         1 MOL       0.0000
    331 H97          0.3865    -5.1628    24.7173 H         1 MOL       0.0000
    332 H98         -1.9397    -6.0928    24.8196 H         1 MOL       0.0000
    333 H99          1.1080     4.0487    16.4000 H         1 MOL       0.0000
    334 H100         2.0864     2.0331    15.1313 H         1 MOL       0.0000
    335 H101         3.4027     1.0012    13.3472 H         1 MOL       0.0000
    336 N17          4.1922   -14.3896    25.9834 N         1 MOL       0.0000
    337 C115        -3.5853    -6.5251    14.2313 C         1 MOL       0.0000
    338 C116         5.1681   -12.1136    22.6214 C         1 MOL       0.0000
    339 O73         -6.4901    -6.5665    15.8769 O         1 MOL       0.0000
    340 O74        -10.9323     5.4512    14.3957 O         1 MOL       0.0000
    341 O75         -3.2962    -0.6904    23.4973 O         1 MOL       0.0000
    342 O76         -1.3229    -0.4489    21.9676 O         1 MOL       0.0000
    343 F13         -3.9083    -5.7361    15.3361 F         1 MOL       0.0000
    344 F14          4.9669   -10.0237    24.7745 F         1 MOL       0.0000
    345 F15         -2.4607    -5.9239    13.7306 F         1 MOL       0.0000
    346 F16         -4.9966    -6.8155    17.5724 F         1 MOL       0.0000
    347 F17          4.6777   -10.8749    22.5935 F         1 MOL       0.0000
    348 F18         -1.8476     1.9072    21.4111 F         1 MOL       0.0000
    349 S5           9.6775    -7.9056    13.9216 S         1 MOL       0.0000
    350 S6          -1.9203    -0.3071    23.2795 S         1 MOL       0.0000
    351 N18         -1.0869    -5.4764    16.7113 N         1 MOL       0.0000
    352 N19         -2.9166    -4.7079    17.6176 N         1 MOL       0.0000
    353 C117         0.0947    -5.5757    15.8281 C         1 MOL       0.0000
    354 C118        -2.0080    -4.4988    16.6480 C         1 MOL       0.0000
    355 C119        -1.4046    -6.3336    17.7535 C         1 MOL       0.0000
    356 C120         0.2962    -6.9518    15.1985 C         1 MOL       0.0000
    357 C121        -2.5505    -5.8439    18.3144 C         1 MOL       0.0000
    358 C122        -4.1986    -4.0077    17.7420 C         1 MOL       0.0000
    359 H102         0.9698    -5.2720    16.4181 H         1 MOL       0.0000
    360 H103        -0.0303    -4.8023    15.0628 H         1 MOL       0.0000
    361 H104        -2.0683    -3.7377    15.8897 H         1 MOL       0.0000
    362 H105         1.2951    -6.9659    14.7425 H         1 MOL       0.0000
    363 H106        -0.8161    -7.2028    17.9866 H         1 MOL       0.0000
    364 H107        -4.3279    -3.6943    18.7781 H         1 MOL       0.0000
    365 H108        -4.1835    -3.1329    17.0822 H         1 MOL       0.0000
    366 H109         0.2454    -7.7516    15.9467 H         1 MOL       0.0000
    367 H110        -3.1537    -6.2498    19.1124 H         1 MOL       0.0000
    368 H111        -0.4589    -7.1758    14.4394 H         1 MOL       0.0000
    369 H112        -4.9951    -4.6950    17.4395 H         1 MOL       0.0000
    370 N20         -4.6267    -6.5476    13.2605 N         1 MOL       0.0000
    371 C123        -6.2249    -7.2255    16.9559 C         1 MOL       0.0000
    372 C124         4.8596   -12.9874    23.8989 C         1 MOL       0.0000
    373 O77         -9.2731   -11.0808    25.7992 O         1 MOL       0.0000
    374 O78         -2.8239    -8.4505    16.2048 O         1 MOL       0.0000
    375 O79         -8.3206   -12.8057    24.1759 O         1 MOL       0.0000
    376 O80         -8.6322     5.9625    13.7769 O         1 MOL       0.0000
    377 F19         -7.1380    -7.0057    17.9832 F         1 MOL       0.0000
    378 F20          3.6525   -12.6028    24.3677 F         1 MOL       0.0000
    379 F21          2.2364     5.3409    14.5138 F         1 MOL       0.0000
    380 F22         -6.1011    -8.5712    16.8409 F         1 MOL       0.0000
    381 F23          6.5066   -12.0757    22.4424 F         1 MOL       0.0000
    382 F24         -0.9309    -1.2805    24.1788 F         1 MOL       0.0000
    383 S7          -9.2916   -12.3959    25.1617 S         1 MOL       0.0000
    384 S8          -9.7141     6.2059    14.7177 S         1 MOL       0.0000
    385 Ti17        -9.3724    16.8428    11.1894 Ti        1 MOL       0.0000
    386 Ti18         1.4580    19.7240     1.8246 Ti        1 MOL       0.0000
    387 Ti19        -5.2758    12.9066     9.3694 Ti        1 MOL       0.0000
    388 Ti20        -3.7646    22.0687     3.5964 Ti        1 MOL       0.0000
    389 Ti21        -4.7631    23.7470     1.6920 Ti        1 MOL       0.0000
    390 Ti22        -3.3876    12.6522    11.3228 Ti        1 MOL       0.0000
    391 Ti23        -8.4232    15.1069     9.2979 Ti        1 MOL       0.0000
    392 Ti24        -0.5298    20.0265     3.6721 Ti        1 MOL       0.0000
    393 H113        -8.8706    20.7399    10.9699 H         1 MOL       0.0000
    394 H114         2.2668    15.8179     2.1453 H         1 MOL       0.0000
    395 H115       -13.3323    16.0861    10.8070 H         1 MOL       0.0000
    396 H116         4.8402    21.7283     2.0252 H         1 MOL       0.0000
    397 H117        -2.4119     8.6177    10.9369 H         1 MOL       0.0000
    398 H118        -8.8217    23.1571     2.0141 H         1 MOL       0.0000
    399 H119        -8.9037    15.0442    12.9139 H         1 MOL       0.0000
    400 H120        -0.4175    19.4813     0.1247 H         1 MOL       0.0000
    401 H121        -2.8776    11.9851     5.8117 H         1 MOL       0.0000
    402 H122        -5.4880    23.9057     7.2153 H         1 MOL       0.0000
    403 H123       -12.4959    18.4955     8.9420 H         1 MOL       0.0000
    404 H124         4.2128    17.6396     4.1306 H         1 MOL       0.0000
    405 H125       -10.1948    17.0481     5.6082 H         1 MOL       0.0000
    406 H126        -7.8632    25.5749     4.0452 H         1 MOL       0.0000
    407 H127        -4.3709    26.8498     2.5475 H         1 MOL       0.0000
    408 H128         2.1090    13.7991     3.3478 H         1 MOL       0.0000
    409 H129        -1.6719    21.7488     2.2578 H         1 MOL       0.0000
    410 H130        -6.3565    14.7550    10.6630 H         1 MOL       0.0000
    411 H131         0.8472    14.5871     9.7125 H         1 MOL       0.0000
    412 H132        -0.6339    14.1180    10.4598 H         1 MOL       0.0000
    413 H133         1.4213    19.0207     8.6136 H         1 MOL       0.0000
    414 H134         0.8516    19.3793     6.9950 H         1 MOL       0.0000
    415 H135         0.3584     9.6322     9.5224 H         1 MOL       0.0000
    416 H136        -0.9208    10.7328     9.9798 H         1 MOL       0.0000
    417 C125         2.0361    18.9827     4.6881 C         1 MOL       0.0000
    418 C126       -10.3330    17.1042     8.3424 C         1 MOL       0.0000
    419 C127        -2.6952    11.8959     8.4447 C         1 MOL       0.0000
    420 C128        -5.7007    24.0392     4.5557 C         1 MOL       0.0000
    421 C129         2.9321    18.3784     5.6833 C         1 MOL       0.0000
    422 C130       -11.2649    17.7292     7.3653 C         1 MOL       0.0000
    423 C131        -1.7550    11.2815     7.4975 C         1 MOL       0.0000
    424 C132        -6.5905    24.6860     5.5555 C         1 MOL       0.0000
    425 C133         2.6833    18.4533     7.0897 C         1 MOL       0.0000
    426 C134       -11.0485    17.6092     5.9773 C         1 MOL       0.0000
    427 C135        -0.6256    10.5212     7.9506 C         1 MOL       0.0000
    428 C136        -7.6852    25.4590     5.1106 C         1 MOL       0.0000
    429 C137        -6.3360    24.5152     6.9104 C         1 MOL       0.0000
    430 C138        -2.0028    11.4136     6.1136 C         1 MOL       0.0000
    431 C139         4.0658    17.6794     5.2076 C         1 MOL       0.0000
    432 C140       -12.3651    18.4216     7.8640 C         1 MOL       0.0000
    433 C141         2.2478    15.8970     0.0012 C         1 MOL       0.0000
    434 C142        -4.2219    27.6886     0.0262 C         1 MOL       0.0000
    435 C143         0.0973    14.5941    12.9702 C         1 MOL       0.0000
    436 C144       -13.2610    16.1365    12.9508 C         1 MOL       0.0000
    437 C145        -3.0178    19.7255     5.5610 C         1 MOL       0.0000
    438 C146        -7.7739    12.6311     7.4791 C         1 MOL       0.0000
    439 C147        -2.5230    10.2858    13.0730 C         1 MOL       0.0000
    440 C148        -4.3146    26.2551    -0.0113 C         1 MOL       0.0000
    441 C149        -1.2006    13.9773    13.0170 C         1 MOL       0.0000
    442 C150       -11.8587    16.5509    12.9753 C         1 MOL       0.0000
    443 C151         2.2872    15.2279     1.2309 C         1 MOL       0.0000
    444 C152        -8.8596    21.3283    11.8838 C         1 MOL       0.0000
    445 C153       -10.6124    22.4919     1.0191 C         1 MOL       0.0000
    446 C154       -13.8938    15.9068    11.7223 C         1 MOL       0.0000
    447 C155         0.7919    14.8624    11.7368 C         1 MOL       0.0000
    448 C156        -9.3232    22.9721     1.0683 C         1 MOL       0.0000
    449 C157        -2.3703     8.0905    11.8859 C         1 MOL       0.0000
    450 C158         2.3089    13.8268     1.3125 C         1 MOL       0.0000
    451 N21          2.3640    13.2279     2.5506 N         1 MOL       0.0000
    452 N22          0.2129    14.6795    10.4978 N         1 MOL       0.0000
    453 N23          1.6025    19.0996     7.6210 N         1 MOL       0.0000
    454 N24         -0.2946    10.3630     9.2680 N         1 MOL       0.0000
    455 O81          0.8598    19.3878     5.0539 O         1 MOL       0.0000
    456 O82         -9.5640    16.1533     7.9441 O         1 MOL       0.0000
    457 O83         -2.3138    12.0203     9.6658 O         1 MOL       0.0000
    458 O84         -5.7665    24.4689     3.3561 O         1 MOL       0.0000
    459 O85         -4.9302    23.0820     4.9422 O         1 MOL       0.0000
    460 O86         -3.8657    12.2643     8.0392 O         1 MOL       0.0000
    461 O87          2.4480    19.0635     3.4764 O         1 MOL       0.0000
    462 O88        -10.3750    17.5404     9.5421 O         1 MOL       0.0000
    463 O89         -0.2246    18.8086     2.4774 O         1 MOL       0.0000
    464 O90         -7.8708    16.6672    10.0424 O         1 MOL       0.0000
    465 O91          0.7142    21.0959     2.9273 O         1 MOL       0.0000
    466 O92         -9.6230    14.9425    10.5351 O         1 MOL       0.0000
    467 O93         -5.0164    11.7346    10.6298 O         1 MOL       0.0000
    468 O94         -3.2480    23.6300     2.8579 O         1 MOL       0.0000
    469 O95         -4.0625    13.9961    10.1657 O         1 MOL       0.0000
    470 O96         -4.9542    21.8729     2.3405 O         1 MOL       0.0000
    471 O97         -1.7967    19.5457     5.2067 O         1 MOL       0.0000
    472 O98         -8.4316    13.6661     7.8573 O         1 MOL       0.0000
    473 O99         -2.6452    10.8804    11.9319 O         1 MOL       0.0000
    474 O100        -4.3977    25.5536     1.0839 O         1 MOL       0.0000
    475 O101        -1.8431    13.6685    11.9268 O         1 MOL       0.0000
    476 O102        -6.6337    23.7179     1.0238 O         1 MOL       0.0000
    477 O103        -6.6121    12.3366     7.9369 O         1 MOL       0.0000
    478 O104        -3.7597    20.6464     5.0676 O         1 MOL       0.0000
    479 O105         2.8951    20.7431     1.0700 O         1 MOL       0.0000
    480 O106       -11.2592    16.7827    11.8578 O         1 MOL       0.0000
    481 O107         2.0995    17.9888     1.0994 O         1 MOL       0.0000
    482 O108        -8.9910    18.5650    11.9391 O         1 MOL       0.0000
    483 O109        -2.0328    21.2001     2.9784 O         1 MOL       0.0000
    484 O110        -6.7347    14.1963     9.9595 O         1 MOL       0.0000
    485 O111         0.4213    19.9749     0.0456 O         1 MOL       0.0000
    486 O112        -8.7813    16.0110    12.9739 O         1 MOL       0.0000
    487 H137        -2.7282    16.1228     8.5088 H         1 MOL       0.0000
    488 H138       -13.1204    25.2654     5.9993 H         1 MOL       0.0000
    489 H139        -2.0905    24.7003     5.7392 H         1 MOL       0.0000
    490 H140        -1.8041    17.6047     6.7067 H         1 MOL       0.0000
    491 H141        -6.2977    18.5247     8.6472 H         1 MOL       0.0000
    492 H142         5.5992    11.9041     7.0565 H         1 MOL       0.0000
    493 H143        -4.9876    16.5565     9.4098 H         1 MOL       0.0000
    494 H144        -5.3656    20.0134     6.8535 H         1 MOL       0.0000
    495 H145        -0.7603    22.9308     4.6141 H         1 MOL       0.0000
    496 H146         1.7145    22.9331     4.7528 H         1 MOL       0.0000
    497 C159        -3.5453    18.8773     6.6557 C         1 MOL       0.0000
    498 C160        -4.5717    17.2279     8.6612 C         1 MOL       0.0000
    499 C161        -0.2523    23.7098     5.1822 C         1 MOL       0.0000
    500 C162        -8.4388    11.6475     6.5971 C         1 MOL       0.0000
    501 C163        -4.8037    19.1529     7.2174 C         1 MOL       0.0000
    502 C164        -3.2986    16.9736     8.1394 C         1 MOL       0.0000
    503 C165        -1.0038    24.7123     5.8048 C         1 MOL       0.0000
    504 C166       -14.2038    25.2546     5.9090 C         1 MOL       0.0000
    505 C167         1.1452    23.7091     5.2605 C         1 MOL       0.0000
    506 C168         6.1603    11.1103     6.5692 C         1 MOL       0.0000
    507 C169        -2.7820    17.8001     7.1418 C         1 MOL       0.0000
    508 C170        -5.3186    18.3257     8.2149 C         1 MOL       0.0000
    509 N25         -1.1909    25.2238     1.2708 N         1 MOL       0.0000
    510 N26         -4.5793    17.0318    12.9699 N         1 MOL       0.0000
    511 C171        -1.4179    25.7221     0.0008 C         1 MOL       0.0000
    512 C172        -5.2940    17.9498    12.2129 C         1 MOL       0.0000
    513 C173        -2.3137    17.1404    11.9518 C         1 MOL       0.0000
    514 C174        -1.5706    25.8928     2.5266 C         1 MOL       0.0000
    515 C175        -0.2684    24.2460     1.1786 C         1 MOL       0.0000
    516 C176        -3.4422    16.2442    12.4583 C         1 MOL       0.0000
    517 H147        -6.6253    19.5505    12.9294 H         1 MOL       0.0000
    518 H148        -5.1787    18.0459    11.1386 H         1 MOL       0.0000
    519 H149        -2.6624    17.7701    11.1224 H         1 MOL       0.0000
    520 H150        -1.6193    26.9629     2.3244 H         1 MOL       0.0000
    521 H151        -1.9209    17.8066    12.7362 H         1 MOL       0.0000
    522 H152        -2.5072    25.4823     2.8892 H         1 MOL       0.0000
    523 H153        -1.4955    16.5162    11.5653 H         1 MOL       0.0000
    524 H154        -3.8217    15.5862    11.6676 H         1 MOL       0.0000
    525 H155        -0.7740    25.7277     3.2480 H         1 MOL       0.0000
    526 H156         0.2044    23.7121     1.9793 H         1 MOL       0.0000
    527 H157         1.5207    22.6802     0.1952 H         1 MOL       0.0000
    528 N27          2.3102     7.2894    12.8314 N         1 MOL       0.0000
    529 C177        -5.4673    15.1539     1.0793 C         1 MOL       0.0000
    530 C178         3.2861     9.5654     9.4694 C         1 MOL       0.0000
    531 O113        -8.3721    15.1125     2.7249 O         1 MOL       0.0000
    532 O114       -12.8143    27.1302     1.2437 O         1 MOL       0.0000
    533 O115        -5.1782    20.9886    10.3453 O         1 MOL       0.0000
    534 O116        -3.2049    21.2301     8.8156 O         1 MOL       0.0000
    535 F25         -5.7903    15.9429     2.1841 F         1 MOL       0.0000
    536 F26          3.0849    11.6553    11.6225 F         1 MOL       0.0000
    537 F27         -4.3427    15.7551     0.5786 F         1 MOL       0.0000
    538 F28         -6.8786    14.8635     4.4204 F         1 MOL       0.0000
    539 F29          2.7957    10.8041     9.4415 F         1 MOL       0.0000
    540 F30         -3.7296    23.5862     8.2591 F         1 MOL       0.0000
    541 S9           7.7955    13.7734     0.7696 S         1 MOL       0.0000
    542 S10         -3.8023    21.3719    10.1275 S         1 MOL       0.0000
    543 N28         -2.9689    16.2026     3.5593 N         1 MOL       0.0000
    544 N29         -4.7986    16.9711     4.4656 N         1 MOL       0.0000
    545 C179        -1.7873    16.1033     2.6761 C         1 MOL       0.0000
    546 C180        -3.8900    17.1802     3.4960 C         1 MOL       0.0000
    547 C181        -3.2866    15.3454     4.6015 C         1 MOL       0.0000
    548 C182        -1.5858    14.7272     2.0465 C         1 MOL       0.0000
    549 C183        -4.4325    15.8351     5.1624 C         1 MOL       0.0000
    550 C184        -6.0806    17.6713     4.5900 C         1 MOL       0.0000
    551 H158        -0.9122    16.4070     3.2661 H         1 MOL       0.0000
    552 H159        -1.9123    16.8767     1.9108 H         1 MOL       0.0000
    553 H160        -3.9503    17.9413     2.7377 H         1 MOL       0.0000
    554 H161        -0.5869    14.7131     1.5905 H         1 MOL       0.0000
    555 H162        -2.6981    14.4762     4.8346 H         1 MOL       0.0000
    556 H163        -6.2099    17.9847     5.6261 H         1 MOL       0.0000
    557 H164        -6.0655    18.5461     3.9302 H         1 MOL       0.0000
    558 H165        -1.6366    13.9274     2.7947 H         1 MOL       0.0000
    559 H166        -5.0357    15.4292     5.9604 H         1 MOL       0.0000
    560 H167        -2.3409    14.5032     1.2874 H         1 MOL       0.0000
    561 H168        -6.8771    16.9840     4.2875 H         1 MOL       0.0000
    562 N30         -6.5087    15.1314     0.1085 N         1 MOL       0.0000
    563 C185        -8.1069    14.4535     3.8039 C         1 MOL       0.0000
    564 C186         2.9776     8.6916    10.7469 C         1 MOL       0.0000
    565 O117       -11.1551    10.5982    12.6472 O         1 MOL       0.0000
    566 O118        -4.7059    13.2285     3.0528 O         1 MOL       0.0000
    567 O119       -10.2026     8.8733    11.0239 O         1 MOL       0.0000
    568 O120       -10.5142    27.6415     0.6249 O         1 MOL       0.0000
    569 F31         -9.0200    14.6733     4.8312 F         1 MOL       0.0000
    570 F32          1.7705     9.0762    11.2157 F         1 MOL       0.0000
    571 F33          0.3544    27.0199     1.3618 F         1 MOL       0.0000
    572 F34         -7.9831    13.1078     3.6889 F         1 MOL       0.0000
    573 F35          4.6246     9.6033     9.2904 F         1 MOL       0.0000
    574 F36         -2.8129    20.3985    11.0268 F         1 MOL       0.0000
    575 S11        -11.1736     9.2831    12.0097 S         1 MOL       0.0000
    576 S12        -11.5961    27.8849     1.5657 S         1 MOL       0.0000
    577 Ti25       -14.0074     9.7768    24.2844 Ti        1 MOL       0.0000
    578 Ti26        -3.1770    12.6580    14.9196 Ti        1 MOL       0.0000
    579 Ti27        -9.9108     5.8406    22.4644 Ti        1 MOL       0.0000
    580 Ti28        -8.3996    15.0027    16.6914 Ti        1 MOL       0.0000
    581 Ti29        -9.3981    16.6810    14.7870 Ti        1 MOL       0.0000
    582 Ti30        -8.0226     5.5862    24.4178 Ti        1 MOL       0.0000
    583 Ti31       -13.0582     8.0409    22.3929 Ti        1 MOL       0.0000
    584 Ti32        -5.1648    12.9605    16.7671 Ti        1 MOL       0.0000
    585 H169       -13.5056    13.6739    24.0649 H         1 MOL       0.0000
    586 H170        -2.3682     8.7519    15.2403 H         1 MOL       0.0000
    587 H171       -17.9673     9.0201    23.9020 H         1 MOL       0.0000
    588 H172         0.2052    14.6623    15.1202 H         1 MOL       0.0000
    589 H173        -7.0469     1.5517    24.0319 H         1 MOL       0.0000
    590 H174       -13.4567    16.0911    15.1091 H         1 MOL       0.0000
    591 H175       -13.5387     7.9782    26.0089 H         1 MOL       0.0000
    592 H176        -5.0525    12.4153    13.2196 H         1 MOL       0.0000
    593 H177        -7.5126     4.9191    18.9067 H         1 MOL       0.0000
    594 H178       -10.1230    16.8397    20.3103 H         1 MOL       0.0000
    595 H179       -17.1309    11.4295    22.0370 H         1 MOL       0.0000
    596 H180        -0.4222    10.5736    17.2256 H         1 MOL       0.0000
    597 H181       -14.8298     9.9821    18.7032 H         1 MOL       0.0000
    598 H182       -12.4982    18.5089    17.1402 H         1 MOL       0.0000
    599 H183        -9.0059    19.7838    15.6425 H         1 MOL       0.0000
    600 H184        -2.5260     6.7331    16.4428 H         1 MOL       0.0000
    601 H185        -6.3069    14.6828    15.3528 H         1 MOL       0.0000
    602 H186       -10.9915     7.6890    23.7580 H         1 MOL       0.0000
    603 H187        -3.7878     7.5211    22.8075 H         1 MOL       0.0000
    604 H188        -5.2689     7.0520    23.5548 H         1 MOL       0.0000
    605 H189        -3.2137    11.9547    21.7085 H         1 MOL       0.0000
    606 H190        -3.7834    12.3133    20.0900 H         1 MOL       0.0000
    607 H191        -4.2766     2.5662    22.6174 H         1 MOL       0.0000
    608 H192        -5.5558     3.6668    23.0748 H         1 MOL       0.0000
    609 C187        -2.5989    11.9167    17.7831 C         1 MOL       0.0000
    610 C188       -14.9680    10.0381    21.4374 C         1 MOL       0.0000
    611 C189        -7.3302     4.8299    21.5397 C         1 MOL       0.0000
    612 C190       -10.3357    16.9732    17.6507 C         1 MOL       0.0000
    613 C191        -1.7029    11.3124    18.7783 C         1 MOL       0.0000
    614 C192       -15.8999    10.6632    20.4603 C         1 MOL       0.0000
    615 C193        -6.3900     4.2155    20.5925 C         1 MOL       0.0000
    616 C194       -11.2255    17.6200    18.6505 C         1 MOL       0.0000
    617 C195        -1.9517    11.3873    20.1847 C         1 MOL       0.0000
    618 C196       -15.6835    10.5432    19.0723 C         1 MOL       0.0000
    619 C197        -5.2606     3.4552    21.0456 C         1 MOL       0.0000
    620 C198       -12.3202    18.3930    18.2056 C         1 MOL       0.0000
    621 C199       -10.9710    17.4492    20.0054 C         1 MOL       0.0000
    622 C200        -6.6378     4.3476    19.2086 C         1 MOL       0.0000
    623 C201        -0.5692    10.6134    18.3026 C         1 MOL       0.0000
    624 C202       -17.0001    11.3556    20.9590 C         1 MOL       0.0000
    625 C203        -2.3872     8.8310    13.0962 C         1 MOL       0.0000
    626 C204        -8.8569    20.6226    13.1212 C         1 MOL       0.0000
    627 C205        -4.5377     7.5281    26.0652 C         1 MOL       0.0000
    628 C206       -17.8960     9.0705    26.0458 C         1 MOL       0.0000
    629 C207        -7.6528    12.6595    18.6560 C         1 MOL       0.0000
    630 C208       -12.4089     5.5651    20.5741 C         1 MOL       0.0000
    631 C209        -7.1580     3.2199    26.1680 C         1 MOL       0.0000
    632 C210        -8.9496    19.1891    13.0837 C         1 MOL       0.0000
    633 C211        -5.8355     6.9113    26.1120 C         1 MOL       0.0000
    634 C212       -16.4937     9.4849    26.0703 C         1 MOL       0.0000
    635 C213        -2.3478     8.1619    14.3259 C         1 MOL       0.0000
    636 C214       -13.4946    14.2623    24.9788 C         1 MOL       0.0000
    637 C215       -15.2474    15.4259    14.1141 C         1 MOL       0.0000
    638 C216       -18.5288     8.8408    24.8173 C         1 MOL       0.0000
    639 C217        -3.8431     7.7964    24.8318 C         1 MOL       0.0000
    640 C218       -13.9582    15.9061    14.1633 C         1 MOL       0.0000
    641 C219        -7.0053     1.0245    24.9809 C         1 MOL       0.0000
    642 C220        -2.3261     6.7608    14.4075 C         1 MOL       0.0000
    643 N31         -2.2710     6.1619    15.6456 N         1 MOL       0.0000
    644 N32         -4.4221     7.6135    23.5928 N         1 MOL       0.0000
    645 N33         -3.0325    12.0336    20.7160 N         1 MOL       0.0000
    646 N34         -4.9296     3.2970    22.3630 N         1 MOL       0.0000
    647 O121        -3.7752    12.3218    18.1489 O         1 MOL       0.0000
    648 O122       -14.1990     9.0873    21.0391 O         1 MOL       0.0000
    649 O123        -6.9488     4.9543    22.7608 O         1 MOL       0.0000
    650 O124       -10.4015    17.4029    16.4512 O         1 MOL       0.0000
    651 O125        -9.5652    16.0160    18.0372 O         1 MOL       0.0000
    652 O126        -8.5007     5.1983    21.1342 O         1 MOL       0.0000
    653 O127        -2.1870    11.9975    16.5714 O         1 MOL       0.0000
    654 O128       -15.0100    10.4744    22.6371 O         1 MOL       0.0000
    655 O129        -4.8596    11.7426    15.5724 O         1 MOL       0.0000
    656 O130       -12.5058     9.6012    23.1374 O         1 MOL       0.0000
    657 O131        -3.9208    14.0299    16.0223 O         1 MOL       0.0000
    658 O132       -14.2580     7.8765    23.6301 O         1 MOL       0.0000
    659 O133        -9.6515     4.6686    23.7248 O         1 MOL       0.0000
    660 O134        -7.8830    16.5640    15.9529 O         1 MOL       0.0000
    661 O135        -8.6975     6.9301    23.2607 O         1 MOL       0.0000
    662 O136        -9.5892    14.8069    15.4355 O         1 MOL       0.0000
    663 O137        -6.4317    12.4797    18.3017 O         1 MOL       0.0000
    664 O138       -13.0666     6.6001    20.9523 O         1 MOL       0.0000
    665 O139        -7.2802     3.8144    25.0269 O         1 MOL       0.0000
    666 O140        -9.0327    18.4876    14.1789 O         1 MOL       0.0000
    667 O141        -6.4781     6.6025    25.0218 O         1 MOL       0.0000
    668 O142       -11.2687    16.6519    14.1188 O         1 MOL       0.0000
    669 O143       -11.2471     5.2706    21.0319 O         1 MOL       0.0000
    670 O144        -8.3947    13.5804    18.1626 O         1 MOL       0.0000
    671 O145        -1.7399    13.6771    14.1650 O         1 MOL       0.0000
    672 O146       -15.8942     9.7167    24.9528 O         1 MOL       0.0000
    673 O147        -2.5355    10.9228    14.1944 O         1 MOL       0.0000
    674 O148       -13.6260    11.4990    25.0341 O         1 MOL       0.0000
    675 O149        -6.6678    14.1341    16.0734 O         1 MOL       0.0000
    676 O150       -11.3697     7.1303    23.0545 O         1 MOL       0.0000
    677 O151        -4.2137    12.9089    13.1406 O         1 MOL       0.0000
    678 O152       -13.4163     8.9450    26.0689 O         1 MOL       0.0000
    679 H193        -7.3632     9.0568    21.6038 H         1 MOL       0.0000
    680 H194       -17.7554    18.1994    19.0943 H         1 MOL       0.0000
    681 H195        -6.7255    17.6343    18.8342 H         1 MOL       0.0000
    682 H196        -6.4391    10.5387    19.8017 H         1 MOL       0.0000
    683 H197       -10.9327    11.4587    21.7422 H         1 MOL       0.0000
    684 H198         0.9642     4.8381    20.1515 H         1 MOL       0.0000
    685 H199        -9.6226     9.4905    22.5048 H         1 MOL       0.0000
    686 H200       -10.0006    12.9474    19.9485 H         1 MOL       0.0000
    687 H201        -5.3953    15.8648    17.7091 H         1 MOL       0.0000
    688 H202        -2.9205    15.8671    17.8478 H         1 MOL       0.0000
    689 C221        -8.1803    11.8113    19.7507 C         1 MOL       0.0000
    690 C222        -9.2067    10.1619    21.7562 C         1 MOL       0.0000
    691 C223        -4.8873    16.6438    18.2772 C         1 MOL       0.0000
    692 C224       -13.0738     4.5815    19.6921 C         1 MOL       0.0000
    693 C225        -9.4387    12.0869    20.3124 C         1 MOL       0.0000
    694 C226        -7.9336     9.9076    21.2344 C         1 MOL       0.0000
    695 C227        -5.6388    17.6463    18.8998 C         1 MOL       0.0000
    696 C228       -18.8388    18.1886    19.0040 C         1 MOL       0.0000
    697 C229        -3.4898    16.6431    18.3555 C         1 MOL       0.0000
    698 C230         1.5253     4.0443    19.6642 C         1 MOL       0.0000
    699 C231        -7.4170    10.7341    20.2368 C         1 MOL       0.0000
    700 C232        -9.9536    11.2597    21.3099 C         1 MOL       0.0000
    701 N35         -5.8259    18.1578    14.3658 N         1 MOL       0.0000
    702 N36         -9.2143     9.9658    26.0649 N         1 MOL       0.0000
    703 C233        -6.0529    18.6561    13.0958 C         1 MOL       0.0000
    704 C234        -9.9290    10.8838    25.3079 C         1 MOL       0.0000
    705 C235        -6.9487    10.0744    25.0468 C         1 MOL       0.0000
    706 C236        -6.2056    18.8268    15.6216 C         1 MOL       0.0000
    707 C237        -4.9034    17.1800    14.2736 C         1 MOL       0.0000
    708 C238        -8.0772     9.1782    25.5533 C         1 MOL       0.0000
    709 H203       -11.2603    12.4845    26.0244 H         1 MOL       0.0000
    710 H204        -9.8137    10.9799    24.2336 H         1 MOL       0.0000
    711 H205        -7.2974    10.7041    24.2174 H         1 MOL       0.0000
    712 H206        -6.2543    19.8969    15.4194 H         1 MOL       0.0000
    713 H207        -6.5559    10.7406    25.8312 H         1 MOL       0.0000
    714 H208        -7.1422    18.4163    15.9842 H         1 MOL       0.0000
    715 H209        -6.1305     9.4502    24.6603 H         1 MOL       0.0000
    716 H210        -8.4567     8.5202    24.7626 H         1 MOL       0.0000
    717 H211        -5.4090    18.6617    16.3430 H         1 MOL       0.0000
    718 H212        -4.4306    16.6461    15.0743 H         1 MOL       0.0000
    719 H213        -3.1143    15.6142    13.2902 H         1 MOL       0.0000
    720 N37         -2.3248     0.2234    25.9264 N         1 MOL       0.0000
    721 C239       -10.1023     8.0879    14.1743 C         1 MOL       0.0000
    722 C240        -1.3489     2.4994    22.5644 C         1 MOL       0.0000
    723 O153       -13.0071     8.0465    15.8199 O         1 MOL       0.0000
    724 O154       -17.4493    20.0642    14.3387 O         1 MOL       0.0000
    725 O155        -9.8132    13.9226    23.4403 O         1 MOL       0.0000
    726 O156        -7.8399    14.1641    21.9106 O         1 MOL       0.0000
    727 F37        -10.4253     8.8769    15.2791 F         1 MOL       0.0000
    728 F38         -1.5501     4.5893    24.7175 F         1 MOL       0.0000
    729 F39         -8.9777     8.6891    13.6736 F         1 MOL       0.0000
    730 F40        -11.5136     7.7975    17.5154 F         1 MOL       0.0000
    731 F41         -1.8393     3.7381    22.5365 F         1 MOL       0.0000
    732 F42         -8.3646    16.5202    21.3541 F         1 MOL       0.0000
    733 S13          3.1605     6.7074    13.8646 S         1 MOL       0.0000
    734 S14         -8.4373    14.3059    23.2225 S         1 MOL       0.0000
    735 N38         -7.6039     9.1366    16.6543 N         1 MOL       0.0000
    736 N39         -9.4336     9.9051    17.5606 N         1 MOL       0.0000
    737 C241        -6.4223     9.0373    15.7711 C         1 MOL       0.0000
    738 C242        -8.5250    10.1142    16.5910 C         1 MOL       0.0000
    739 C243        -7.9216     8.2794    17.6965 C         1 MOL       0.0000
    740 C244        -6.2208     7.6612    15.1415 C         1 MOL       0.0000
    741 C245        -9.0675     8.7691    18.2574 C         1 MOL       0.0000
    742 C246       -10.7156    10.6053    17.6850 C         1 MOL       0.0000
    743 H214        -5.5472     9.3410    16.3611 H         1 MOL       0.0000
    744 H215        -6.5473     9.8107    15.0058 H         1 MOL       0.0000
    745 H216        -8.5853    10.8753    15.8327 H         1 MOL       0.0000
    746 H217        -5.2219     7.6471    14.6855 H         1 MOL       0.0000
    747 H218        -7.3331     7.4102    17.9296 H         1 MOL       0.0000
    748 H219       -10.8449    10.9187    18.7211 H         1 MOL       0.0000
    749 H220       -10.7005    11.4801    17.0252 H         1 MOL       0.0000
    750 H221        -6.2716     6.8614    15.8897 H         1 MOL       0.0000
    751 H222        -9.6707     8.3632    19.0554 H         1 MOL       0.0000
    752 H223        -6.9759     7.4372    14.3824 H         1 MOL       0.0000
    753 H224       -11.5121     9.9180    17.3825 H         1 MOL       0.0000
    754 N40        -11.1437     8.0654    13.2035 N         1 MOL       0.0000
    755 C247       -12.7419     7.3875    16.8989 C         1 MOL       0.0000
    756 C248        -1.6574     1.6256    23.8419 C         1 MOL       0.0000
    757 O157       -15.7901     3.5322    25.7422 O         1 MOL       0.0000
    758 O158        -9.3409     6.1625    16.1478 O         1 MOL       0.0000
    759 O159       -14.8376     1.8073    24.1189 O         1 MOL       0.0000
    760 O160       -15.1492    20.5755    13.7199 O         1 MOL       0.0000
    761 F43        -13.6550     7.6073    17.9262 F         1 MOL       0.0000
    762 F44         -2.8645     2.0102    24.3107 F         1 MOL       0.0000
    763 F45         -4.2806    19.9539    14.4568 F         1 MOL       0.0000
    764 F46        -12.6181     6.0418    16.7839 F         1 MOL       0.0000
    765 F47         -0.0104     2.5373    22.3854 F         1 MOL       0.0000
    766 F48         -7.4479    13.3325    24.1218 F         1 MOL       0.0000
    767 S15        -15.8086     2.2171    25.1047 S         1 MOL       0.0000
    768 S16        -16.2311    20.8189    14.6607 S         1 MOL       0.0000
    769 Ti33        13.1446     1.6728    11.3364 Ti        1 MOL       0.0000
    770 Ti34        23.9750     4.5540     1.9716 Ti        1 MOL       0.0000
    771 Ti35        17.2413    -2.2634     9.5164 Ti        1 MOL       0.0000
    772 Ti36        18.7524     6.8987     3.7434 Ti        1 MOL       0.0000
    773 Ti37        17.7539     8.5770     1.8390 Ti        1 MOL       0.0000
    774 Ti38        19.1295    -2.5178    11.4698 Ti        1 MOL       0.0000
    775 Ti39        14.0938    -0.0631     9.4449 Ti        1 MOL       0.0000
    776 Ti40        21.9872     4.8565     3.8191 Ti        1 MOL       0.0000
    777 H225        13.6464     5.5698    11.1169 H         1 MOL       0.0000
    778 H226        24.7838     0.6479     2.2923 H         1 MOL       0.0000
    779 H227         9.1847     0.9161    10.9540 H         1 MOL       0.0000
    780 H228        27.3572     6.5583     2.1722 H         1 MOL       0.0000
    781 H229        20.1051    -6.5523    11.0839 H         1 MOL       0.0000
    782 H230        13.6953     7.9871     2.1610 H         1 MOL       0.0000
    783 H231        13.6133    -0.1258    13.0609 H         1 MOL       0.0000
    784 H232        22.0995     4.3113     0.2717 H         1 MOL       0.0000
    785 H233        19.6394    -3.1849     5.9587 H         1 MOL       0.0000
    786 H234        17.0290     8.7357     7.3624 H         1 MOL       0.0000
    787 H235        10.0211     3.3255     9.0890 H         1 MOL       0.0000
    788 H236        26.7298     2.4697     4.2776 H         1 MOL       0.0000
    789 H237        12.3222     1.8781     5.7552 H         1 MOL       0.0000
    790 H238        14.6538    10.4049     4.1922 H         1 MOL       0.0000
    791 H239        18.1461    11.6798     2.6945 H         1 MOL       0.0000
    792 H240        24.6260    -1.3709     3.4948 H         1 MOL       0.0000
    793 H241        20.8451     6.5788     2.4048 H         1 MOL       0.0000
    794 H242        16.1605    -0.4150    10.8100 H         1 MOL       0.0000
    795 H243        23.3642    -0.5829     9.8595 H         1 MOL       0.0000
    796 H244        21.8831    -1.0520    10.6068 H         1 MOL       0.0000
    797 H245        23.9383     3.8507     8.7606 H         1 MOL       0.0000
    798 H246        23.3686     4.2093     7.1420 H         1 MOL       0.0000
    799 H247        22.8754    -5.5378     9.6694 H         1 MOL       0.0000
    800 H248        21.5962    -4.4372    10.1268 H         1 MOL       0.0000
    801 C249        24.5531     3.8127     4.8351 C         1 MOL       0.0000
    802 C250        12.1840     1.9341     8.4894 C         1 MOL       0.0000
    803 C251        19.8218    -3.2741     8.5917 C         1 MOL       0.0000
    804 C252        16.8163     8.8692     4.7027 C         1 MOL       0.0000
    805 C253        25.4491     3.2084     5.8303 C         1 MOL       0.0000
    806 C254        11.2521     2.5592     7.5123 C         1 MOL       0.0000
    807 C255        20.7620    -3.8885     7.6445 C         1 MOL       0.0000
    808 C256        15.9265     9.5160     5.7025 C         1 MOL       0.0000
    809 C257        25.2003     3.2833     7.2367 C         1 MOL       0.0000
    810 C258        11.4685     2.4392     6.1243 C         1 MOL       0.0000
    811 C259        21.8914    -4.6488     8.0976 C         1 MOL       0.0000
    812 C260        14.8318    10.2890     5.2576 C         1 MOL       0.0000
    813 C261        16.1810     9.3453     7.0574 C         1 MOL       0.0000
    814 C262        20.5142    -3.7563     6.2606 C         1 MOL       0.0000
    815 C263        26.5828     2.5094     5.3546 C         1 MOL       0.0000
    816 C264        10.1519     3.2516     8.0110 C         1 MOL       0.0000
    817 C265        24.7648     0.7270     0.1482 C         1 MOL       0.0000
    818 C266        18.2951    12.5186     0.1732 C         1 MOL       0.0000
    819 C267        22.6143    -0.5759    13.1172 C         1 MOL       0.0000
    820 C268         9.2560     0.9665    13.0978 C         1 MOL       0.0000
    821 C269        19.4992     4.5555     5.7080 C         1 MOL       0.0000
    822 C270        14.7431    -2.5389     7.6261 C         1 MOL       0.0000
    823 C271        19.9940    -4.8842    13.2200 C         1 MOL       0.0000
    824 C272        18.2024    11.0851     0.1357 C         1 MOL       0.0000
    825 C273        21.3164    -1.1927    13.1640 C         1 MOL       0.0000
    826 C274        10.6583     1.3809    13.1223 C         1 MOL       0.0000
    827 C275        24.8042     0.0579     1.3779 C         1 MOL       0.0000
    828 C276        13.6574     6.1583    12.0308 C         1 MOL       0.0000
    829 C277        11.9046     7.3219     1.1661 C         1 MOL       0.0000
    830 C278         8.6232     0.7368    11.8693 C         1 MOL       0.0000
    831 C279        23.3089    -0.3076    11.8838 C         1 MOL       0.0000
    832 C280        13.1938     7.8021     1.2153 C         1 MOL       0.0000
    833 C281        20.1467    -7.0795    12.0329 C         1 MOL       0.0000
    834 C282        24.8259    -1.3432     1.4595 C         1 MOL       0.0000
    835 N41         24.8809    -1.9421     2.6976 N         1 MOL       0.0000
    836 N42         22.7299    -0.4905    10.6448 N         1 MOL       0.0000
    837 N43         24.1195     3.9296     7.7680 N         1 MOL       0.0000
    838 N44         22.2224    -4.8070     9.4150 N         1 MOL       0.0000
    839 O161        23.3768     4.2178     5.2009 O         1 MOL       0.0000
    840 O162        12.9530     0.9833     8.0911 O         1 MOL       0.0000
    841 O163        20.2032    -3.1497     9.8128 O         1 MOL       0.0000
    842 O164        16.7505     9.2989     3.5031 O         1 MOL       0.0000
    843 O165        17.5868     7.9120     5.0892 O         1 MOL       0.0000
    844 O166        18.6513    -2.9057     8.1862 O         1 MOL       0.0000
    845 O167        24.9650     3.8935     3.6234 O         1 MOL       0.0000
    846 O168        12.1420     2.3704     9.6891 O         1 MOL       0.0000
    847 O169        22.2924     3.6386     2.6244 O         1 MOL       0.0000
    848 O170        14.6462     1.4972    10.1894 O         1 MOL       0.0000
    849 O171        23.2312     5.9259     3.0743 O         1 MOL       0.0000
    850 O172        12.8940    -0.2275    10.6821 O         1 MOL       0.0000
    851 O173        17.5006    -3.4354    10.7768 O         1 MOL       0.0000
    852 O174        19.2690     8.4600     3.0049 O         1 MOL       0.0000
    853 O175        18.4545    -1.1739    10.3127 O         1 MOL       0.0000
    854 O176        17.5628     6.7029     2.4875 O         1 MOL       0.0000
    855 O177        20.7203     4.3756     5.3537 O         1 MOL       0.0000
    856 O178        14.0854    -1.5039     8.0043 O         1 MOL       0.0000
    857 O179        19.8718    -4.2896    12.0789 O         1 MOL       0.0000
    858 O180        18.1193    10.3836     1.2309 O         1 MOL       0.0000
    859 O181        20.6739    -1.5015    12.0738 O         1 MOL       0.0000
    860 O182        15.8833     8.5479     1.1708 O         1 MOL       0.0000
    861 O183        15.9049    -2.8334     8.0839 O         1 MOL       0.0000
    862 O184        18.7573     5.4764     5.2146 O         1 MOL       0.0000
    863 O185        25.4121     5.5731     1.2170 O         1 MOL       0.0000
    864 O186        11.2578     1.6127    12.0048 O         1 MOL       0.0000
    865 O187        24.6166     2.8188     1.2464 O         1 MOL       0.0000
    866 O188        13.5260     3.3950    12.0861 O         1 MOL       0.0000
    867 O189        20.4842     6.0301     3.1254 O         1 MOL       0.0000
    868 O190        15.7823    -0.9737    10.1065 O         1 MOL       0.0000
    869 O191        22.9383     4.8049     0.1926 O         1 MOL       0.0000
    870 O192        13.7357     0.8410    13.1209 O         1 MOL       0.0000
    871 H249        19.7888     0.9528     8.6558 H         1 MOL       0.0000
    872 H250         9.3966    10.0954     6.1463 H         1 MOL       0.0000
    873 H251        20.4265     9.5303     5.8862 H         1 MOL       0.0000
    874 H252        20.7129     2.4347     6.8537 H         1 MOL       0.0000
    875 H253        16.2193     3.3547     8.7942 H         1 MOL       0.0000
    876 H254        28.1162    -3.2659     7.2035 H         1 MOL       0.0000
    877 H255        17.5294     1.3865     9.5568 H         1 MOL       0.0000
    878 H256        17.1514     4.8434     7.0005 H         1 MOL       0.0000
    879 H257        21.7567     7.7608     4.7611 H         1 MOL       0.0000
    880 H258        24.2315     7.7631     4.8998 H         1 MOL       0.0000
    881 C283        18.9717     3.7073     6.8027 C         1 MOL       0.0000
    882 C284        17.9453     2.0579     8.8082 C         1 MOL       0.0000
    883 C285        22.2647     8.5398     5.3292 C         1 MOL       0.0000
    884 C286        14.0782    -3.5225     6.7441 C         1 MOL       0.0000
    885 C287        17.7133     3.9829     7.3644 C         1 MOL       0.0000
    886 C288        19.2184     1.8036     8.2864 C         1 MOL       0.0000
    887 C289        21.5132     9.5423     5.9518 C         1 MOL       0.0000
    888 C290         8.3132    10.0846     6.0560 C         1 MOL       0.0000
    889 C291        23.6622     8.5391     5.4075 C         1 MOL       0.0000
    890 C292        28.6773    -4.0597     6.7162 C         1 MOL       0.0000
    891 C293        19.7350     2.6301     7.2888 C         1 MOL       0.0000
    892 C294        17.1984     3.1557     8.3619 C         1 MOL       0.0000
    893 N45         21.3261    10.0538     1.4178 N         1 MOL       0.0000
    894 N46         17.9377     1.8618    13.1169 N         1 MOL       0.0000
    895 C295        21.0991    10.5521     0.1478 C         1 MOL       0.0000
    896 C296        17.2230     2.7798    12.3599 C         1 MOL       0.0000
    897 C297        20.2033     1.9704    12.0988 C         1 MOL       0.0000
    898 C298        20.9464    10.7228     2.6736 C         1 MOL       0.0000
    899 C299        22.2486     9.0760     1.3256 C         1 MOL       0.0000
    900 C300        19.0748     1.0742    12.6053 C         1 MOL       0.0000
    901 H259        15.8917     4.3805    13.0764 H         1 MOL       0.0000
    902 H260        17.3383     2.8759    11.2856 H         1 MOL       0.0000
    903 H261        19.8546     2.6001    11.2694 H         1 MOL       0.0000
    904 H262        20.8977    11.7929     2.4714 H         1 MOL       0.0000
    905 H263        20.5961     2.6366    12.8832 H         1 MOL       0.0000
    906 H264        20.0098    10.3123     3.0362 H         1 MOL       0.0000
    907 H265        21.0215     1.3462    11.7123 H         1 MOL       0.0000
    908 H266        18.6953     0.4162    11.8146 H         1 MOL       0.0000
    909 H267        21.7430    10.5577     3.3950 H         1 MOL       0.0000
    910 H268        22.7214     8.5421     2.1263 H         1 MOL       0.0000
    911 H269        24.0377     7.5102     0.3422 H         1 MOL       0.0000
    912 N47         24.8272    -7.8806    12.9784 N         1 MOL       0.0000
    913 C301        17.0497    -0.0161     1.2263 C         1 MOL       0.0000
    914 C302        25.8031    -5.6046     9.6164 C         1 MOL       0.0000
    915 O193        14.1449    -0.0575     2.8719 O         1 MOL       0.0000
    916 O194         9.7027    11.9602     1.3907 O         1 MOL       0.0000
    917 O195        17.3388     5.8186    10.4923 O         1 MOL       0.0000
    918 O196        19.3121     6.0601     8.9626 O         1 MOL       0.0000
    919 F49         16.7267     0.7729     2.3311 F         1 MOL       0.0000
    920 F50         25.6019    -3.5147    11.7695 F         1 MOL       0.0000
    921 F51         18.1743     0.5851     0.7256 F         1 MOL       0.0000
    922 F52         15.6384    -0.3065     4.5674 F         1 MOL       0.0000
    923 F53         25.3127    -4.3659     9.5885 F         1 MOL       0.0000
    924 F54         18.7874     8.4162     8.4061 F         1 MOL       0.0000
    925 S17         30.3125    -1.3966     0.9166 S         1 MOL       0.0000
    926 S18         18.7147     6.2019    10.2745 S         1 MOL       0.0000
    927 N48         19.5481     1.0326     3.7063 N         1 MOL       0.0000
    928 N49         17.7184     1.8011     4.6126 N         1 MOL       0.0000
    929 C303        20.7297     0.9333     2.8231 C         1 MOL       0.0000
    930 C304        18.6270     2.0102     3.6430 C         1 MOL       0.0000
    931 C305        19.2304     0.1754     4.7485 C         1 MOL       0.0000
    932 C306        20.9312    -0.4428     2.1935 C         1 MOL       0.0000
    933 C307        18.0845     0.6651     5.3094 C         1 MOL       0.0000
    934 C308        16.4364     2.5013     4.7370 C         1 MOL       0.0000
    935 H270        21.6048     1.2370     3.4131 H         1 MOL       0.0000
    936 H271        20.6047     1.7067     2.0578 H         1 MOL       0.0000
    937 H272        18.5667     2.7713     2.8847 H         1 MOL       0.0000
    938 H273        21.9301    -0.4569     1.7375 H         1 MOL       0.0000
    939 H274        19.8189    -0.6938     4.9816 H         1 MOL       0.0000
    940 H275        16.3071     2.8147     5.7731 H         1 MOL       0.0000
    941 H276        16.4515     3.3761     4.0772 H         1 MOL       0.0000
    942 H277        20.8804    -1.2426     2.9417 H         1 MOL       0.0000
    943 H278        17.4813     0.2592     6.1074 H         1 MOL       0.0000
    944 H279        20.1761    -0.6668     1.4344 H         1 MOL       0.0000
    945 H280        15.6399     1.8140     4.4345 H         1 MOL       0.0000
    946 N50         16.0083    -0.0386     0.2555 N         1 MOL       0.0000
    947 C309        14.4101    -0.7165     3.9509 C         1 MOL       0.0000
    948 C310        25.4946    -6.4784    10.8939 C         1 MOL       0.0000
    949 O197        11.3619    -4.5718    12.7942 O         1 MOL       0.0000
    950 O198        17.8111    -1.9415     3.1998 O         1 MOL       0.0000
    951 O199        12.3144    -6.2967    11.1709 O         1 MOL       0.0000
    952 O200        12.0028    12.4715     0.7719 O         1 MOL       0.0000
    953 F55         13.4970    -0.4967     4.9782 F         1 MOL       0.0000
    954 F56         24.2875    -6.0938    11.3627 F         1 MOL       0.0000
    955 F57         22.8714    11.8499     1.5088 F         1 MOL       0.0000
    956 F58         14.5339    -2.0622     3.8359 F         1 MOL       0.0000
    957 F59         27.1416    -5.5667     9.4374 F         1 MOL       0.0000
    958 F60         19.7041     5.2285    11.1738 F         1 MOL       0.0000
    959 S19         11.3434    -5.8869    12.1567 S         1 MOL       0.0000
    960 S20         10.9209    12.7149     1.7127 S         1 MOL       0.0000
    961 Ti41         8.5096    -5.3932    24.4314 Ti        1 MOL       0.0000
    962 Ti42        19.3400    -2.5120    15.0666 Ti        1 MOL       0.0000
    963 Ti43        12.6063    -9.3294    22.6114 Ti        1 MOL       0.0000
    964 Ti44        14.1174    -0.1673    16.8384 Ti        1 MOL       0.0000
    965 Ti45        13.1189     1.5110    14.9340 Ti        1 MOL       0.0000
    966 Ti46        14.4945    -9.5838    24.5648 Ti        1 MOL       0.0000
    967 Ti47         9.4588    -7.1291    22.5399 Ti        1 MOL       0.0000
    968 Ti48        17.3522    -2.2095    16.9140 Ti        1 MOL       0.0000
    969 H281         9.0114    -1.4961    24.2119 H         1 MOL       0.0000
    970 H282        20.1488    -6.4181    15.3873 H         1 MOL       0.0000
    971 H283         4.5497    -6.1499    24.0490 H         1 MOL       0.0000
    972 H284        22.7222    -0.5077    15.2672 H         1 MOL       0.0000
    973 H285        15.4701   -13.6183    24.1789 H         1 MOL       0.0000
    974 H286         9.0603     0.9211    15.2561 H         1 MOL       0.0000
    975 H287         8.9783    -7.1918    26.1559 H         1 MOL       0.0000
    976 H288        17.4645    -2.7547    13.3666 H         1 MOL       0.0000
    977 H289        15.0044   -10.2509    19.0537 H         1 MOL       0.0000
    978 H290        12.3940     1.6697    20.4573 H         1 MOL       0.0000
    979 H291         5.3861    -3.7405    22.1840 H         1 MOL       0.0000
    980 H292        22.0948    -4.5963    17.3726 H         1 MOL       0.0000
    981 H293         7.6872    -5.1879    18.8502 H         1 MOL       0.0000
    982 H294        10.0188     3.3389    17.2872 H         1 MOL       0.0000
    983 H295        13.5111     4.6138    15.7895 H         1 MOL       0.0000
    984 H296        19.9910    -8.4369    16.5898 H         1 MOL       0.0000
    985 H297        16.2101    -0.4872    15.4998 H         1 MOL       0.0000
    986 H298        11.5255    -7.4810    23.9050 H         1 MOL       0.0000
    987 H299        18.7292    -7.6489    22.9545 H         1 MOL       0.0000
    988 H300        17.2481    -8.1180    23.7018 H         1 MOL       0.0000
    989 H301        19.3033    -3.2153    21.8555 H         1 MOL       0.0000
    990 H302        18.7336    -2.8567    20.2370 H         1 MOL       0.0000
    991 H303        18.2404   -12.6038    22.7644 H         1 MOL       0.0000
    992 H304        16.9612   -11.5032    23.2218 H         1 MOL       0.0000
    993 C311        19.9181    -3.2533    17.9301 C         1 MOL       0.0000
    994 C312         7.5490    -5.1319    21.5844 C         1 MOL       0.0000
    995 C313        15.1867   -10.3401    21.6867 C         1 MOL       0.0000
    996 C314        12.1813     1.8032    17.7978 C         1 MOL       0.0000
    997 C315        20.8141    -3.8576    18.9253 C         1 MOL       0.0000
    998 C316         6.6171    -4.5068    20.6073 C         1 MOL       0.0000
    999 C317        16.1270   -10.9545    20.7395 C         1 MOL       0.0000
   1000 C318        11.2915     2.4500    18.7975 C         1 MOL       0.0000
   1001 C319        20.5653    -3.7827    20.3317 C         1 MOL       0.0000
   1002 C320         6.8335    -4.6268    19.2193 C         1 MOL       0.0000
   1003 C321        17.2564   -11.7148    21.1926 C         1 MOL       0.0000
   1004 C322        10.1968     3.2230    18.3526 C         1 MOL       0.0000
   1005 C323        11.5460     2.2792    20.1524 C         1 MOL       0.0000
   1006 C324        15.8792   -10.8223    19.3556 C         1 MOL       0.0000
   1007 C325        21.9478    -4.5566    18.4496 C         1 MOL       0.0000
   1008 C326         5.5170    -3.8144    21.1060 C         1 MOL       0.0000
   1009 C327        20.1298    -6.3390    13.2432 C         1 MOL       0.0000
   1010 C328        13.6601     5.4526    13.2682 C         1 MOL       0.0000
   1011 C329        17.9793    -7.6419    26.2122 C         1 MOL       0.0000
   1012 C330         4.6210    -6.0995    26.1928 C         1 MOL       0.0000
   1013 C331        14.8642    -2.5105    18.8030 C         1 MOL       0.0000
   1014 C332        10.1081    -9.6049    20.7211 C         1 MOL       0.0000
   1015 C333        15.3590   -11.9502    26.3150 C         1 MOL       0.0000
   1016 C334        13.5674     4.0191    13.2307 C         1 MOL       0.0000
   1017 C335        16.6814    -8.2587    26.2590 C         1 MOL       0.0000
   1018 C336         6.0233    -5.6851    26.2173 C         1 MOL       0.0000
   1019 C337        20.1692    -7.0081    14.4729 C         1 MOL       0.0000
   1020 C338         9.0224    -0.9077    25.1258 C         1 MOL       0.0000
   1021 C339         7.2696     0.2559    14.2611 C         1 MOL       0.0000
   1022 C340         3.9882    -6.3292    24.9643 C         1 MOL       0.0000
   1023 C341        18.6739    -7.3736    24.9788 C         1 MOL       0.0000
   1024 C342         8.5588     0.7361    14.3103 C         1 MOL       0.0000
   1025 C343        15.5117   -14.1455    25.1279 C         1 MOL       0.0000
   1026 C344        20.1909    -8.4092    14.5545 C         1 MOL       0.0000
   1027 N51         20.2459    -9.0081    15.7926 N         1 MOL       0.0000
   1028 N52         18.0949    -7.5564    23.7398 N         1 MOL       0.0000
   1029 N53         19.4844    -3.1364    20.8630 N         1 MOL       0.0000
   1030 N54         17.5874   -11.8730    22.5100 N         1 MOL       0.0000
   1031 O201        18.7418    -2.8482    18.2959 O         1 MOL       0.0000
   1032 O202         8.3180    -6.0827    21.1861 O         1 MOL       0.0000
   1033 O203        15.5682   -10.2157    22.9078 O         1 MOL       0.0000
   1034 O204        12.1155     2.2329    16.5982 O         1 MOL       0.0000
   1035 O205        12.9518     0.8460    18.1842 O         1 MOL       0.0000
   1036 O206        14.0163    -9.9717    21.2812 O         1 MOL       0.0000
   1037 O207        20.3300    -3.1725    16.7184 O         1 MOL       0.0000
   1038 O208         7.5070    -4.6956    22.7841 O         1 MOL       0.0000
   1039 O209        17.6574    -3.4274    15.7194 O         1 MOL       0.0000
   1040 O210        10.0112    -5.5688    23.2844 O         1 MOL       0.0000
   1041 O211        18.5962    -1.1401    16.1693 O         1 MOL       0.0000
   1042 O212         8.2590    -7.2935    23.7771 O         1 MOL       0.0000
   1043 O213        12.8655   -10.5014    23.8718 O         1 MOL       0.0000
   1044 O214        14.6340     1.3940    16.0999 O         1 MOL       0.0000
   1045 O215        13.8195    -8.2399    23.4077 O         1 MOL       0.0000
   1046 O216        12.9278    -0.3631    15.5825 O         1 MOL       0.0000
   1047 O217        16.0853    -2.6904    18.4487 O         1 MOL       0.0000
   1048 O218         9.4504    -8.5699    21.0993 O         1 MOL       0.0000
   1049 O219        15.2368   -11.3556    25.1739 O         1 MOL       0.0000
   1050 O220        13.4843     3.3176    14.3259 O         1 MOL       0.0000
   1051 O221        16.0389    -8.5675    25.1688 O         1 MOL       0.0000
   1052 O222        11.2483     1.4819    14.2658 O         1 MOL       0.0000
   1053 O223        11.2699    -9.8994    21.1789 O         1 MOL       0.0000
   1054 O224        14.1223    -1.5896    18.3096 O         1 MOL       0.0000
   1055 O225        20.7771    -1.4929    14.3120 O         1 MOL       0.0000
   1056 O226         6.6228    -5.4533    25.0998 O         1 MOL       0.0000
   1057 O227        19.9816    -4.2472    14.3414 O         1 MOL       0.0000
   1058 O228         8.8910    -3.6709    25.1811 O         1 MOL       0.0000
   1059 O229        15.8492    -1.0359    16.2204 O         1 MOL       0.0000
   1060 O230        11.1473    -8.0397    23.2015 O         1 MOL       0.0000
   1061 O231        18.3033    -2.2611    13.2876 O         1 MOL       0.0000
   1062 O232         9.1007    -6.2250    26.2159 O         1 MOL       0.0000
   1063 H305        15.1538    -6.1132    21.7508 H         1 MOL       0.0000
   1064 H306         4.7616     3.0294    19.2413 H         1 MOL       0.0000
   1065 H307        15.7915     2.4643    18.9812 H         1 MOL       0.0000
   1066 H308        16.0779    -4.6313    19.9487 H         1 MOL       0.0000
   1067 H309        11.5843    -3.7113    21.8892 H         1 MOL       0.0000
   1068 H310        23.4812   -10.3319    20.2985 H         1 MOL       0.0000
   1069 H311        12.8944    -5.6795    22.6518 H         1 MOL       0.0000
   1070 H312        12.5164    -2.2226    20.0955 H         1 MOL       0.0000
   1071 H313        17.1217     0.6948    17.8561 H         1 MOL       0.0000
   1072 H314        19.5965     0.6971    17.9948 H         1 MOL       0.0000
   1073 C345        14.3367    -3.3587    19.8977 C         1 MOL       0.0000
   1074 C346        13.3103    -5.0081    21.9032 C         1 MOL       0.0000
   1075 C347        17.6297     1.4738    18.4242 C         1 MOL       0.0000
   1076 C348         9.4432   -10.5885    19.8391 C         1 MOL       0.0000
   1077 C349        13.0783    -3.0831    20.4594 C         1 MOL       0.0000
   1078 C350        14.5834    -5.2624    21.3814 C         1 MOL       0.0000
   1079 C351        16.8782     2.4763    19.0468 C         1 MOL       0.0000
   1080 C352         3.6782     3.0186    19.1510 C         1 MOL       0.0000
   1081 C353        19.0272     1.4731    18.5025 C         1 MOL       0.0000
   1082 C354        24.0423   -11.1257    19.8112 C         1 MOL       0.0000
   1083 C355        15.1000    -4.4359    20.3838 C         1 MOL       0.0000
   1084 C356        12.5634    -3.9103    21.4569 C         1 MOL       0.0000
   1085 N55         16.6911     2.9878    14.5128 N         1 MOL       0.0000
   1086 N56         13.3027    -5.2042    26.2119 N         1 MOL       0.0000
   1087 C357        16.4641     3.4861    13.2428 C         1 MOL       0.0000
   1088 C358        12.5880    -4.2862    25.4549 C         1 MOL       0.0000
   1089 C359        15.5683    -5.0956    25.1938 C         1 MOL       0.0000
   1090 C360        16.3114     3.6568    15.7686 C         1 MOL       0.0000
   1091 C361        17.6136     2.0100    14.4206 C         1 MOL       0.0000
   1092 C362        14.4398    -5.9918    25.7003 C         1 MOL       0.0000
   1093 H315        11.2567    -2.6855    26.1714 H         1 MOL       0.0000
   1094 H316        12.7033    -4.1901    24.3806 H         1 MOL       0.0000
   1095 H317        15.2196    -4.4659    24.3644 H         1 MOL       0.0000
   1096 H318        16.2627     4.7269    15.5664 H         1 MOL       0.0000
   1097 H319        15.9611    -4.4294    25.9782 H         1 MOL       0.0000
   1098 H320        15.3748     3.2463    16.1312 H         1 MOL       0.0000
   1099 H321        16.3865    -5.7198    24.8073 H         1 MOL       0.0000
   1100 H322        14.0603    -6.6498    24.9096 H         1 MOL       0.0000
   1101 H323        17.1080     3.4917    16.4900 H         1 MOL       0.0000
   1102 H324        18.0864     1.4761    15.2213 H         1 MOL       0.0000
   1103 H325        19.4027     0.4442    13.4372 H         1 MOL       0.0000
   1104 N57         20.1922   -14.9466    26.0734 N         1 MOL       0.0000
   1105 C363        12.4147    -7.0821    14.3213 C         1 MOL       0.0000
   1106 C364        21.1681   -12.6706    22.7114 C         1 MOL       0.0000
   1107 O233         9.5099    -7.1235    15.9669 O         1 MOL       0.0000
   1108 O234         5.0677     4.8942    14.4857 O         1 MOL       0.0000
   1109 O235        12.7038    -1.2474    23.5873 O         1 MOL       0.0000
   1110 O236        14.6771    -1.0059    22.0576 O         1 MOL       0.0000
   1111 F61         12.0917    -6.2931    15.4261 F         1 MOL       0.0000
   1112 F62         20.9669   -10.5807    24.8645 F         1 MOL       0.0000
   1113 F63         13.5393    -6.4809    13.8206 F         1 MOL       0.0000
   1114 F64         11.0034    -7.3725    17.6624 F         1 MOL       0.0000
   1115 F65         20.6777   -11.4319    22.6835 F         1 MOL       0.0000
   1116 F66         14.1524     1.3502    21.5011 F         1 MOL       0.0000
   1117 S21         25.6775    -8.4626    14.0116 S         1 MOL       0.0000
   1118 S22         14.0797    -0.8641    23.3695 S         1 MOL       0.0000
   1119 N58         14.9131    -6.0334    16.8013 N         1 MOL       0.0000
   1120 N59         13.0834    -5.2649    17.7076 N         1 MOL       0.0000
   1121 C365        16.0947    -6.1327    15.9181 C         1 MOL       0.0000
   1122 C366        13.9920    -5.0558    16.7380 C         1 MOL       0.0000
   1123 C367        14.5954    -6.8906    17.8435 C         1 MOL       0.0000
   1124 C368        16.2962    -7.5088    15.2885 C         1 MOL       0.0000
   1125 C369        13.4495    -6.4009    18.4044 C         1 MOL       0.0000
   1126 C370        11.8014    -4.5647    17.8320 C         1 MOL       0.0000
   1127 H326        16.9698    -5.8290    16.5081 H         1 MOL       0.0000
   1128 H327        15.9697    -5.3593    15.1528 H         1 MOL       0.0000
   1129 H328        13.9317    -4.2947    15.9797 H         1 MOL       0.0000
   1130 H329        17.2951    -7.5229    14.8325 H         1 MOL       0.0000
   1131 H330        15.1839    -7.7598    18.0766 H         1 MOL       0.0000
   1132 H331        11.6721    -4.2513    18.8681 H         1 MOL       0.0000
   1133 H332        11.8165    -3.6899    17.1722 H         1 MOL       0.0000
   1134 H333        16.2454    -8.3086    16.0367 H         1 MOL       0.0000
   1135 H334        12.8463    -6.8068    19.2024 H         1 MOL       0.0000
   1136 H335        15.5411    -7.7328    14.5294 H         1 MOL       0.0000
   1137 H336        11.0049    -5.2520    17.5295 H         1 MOL       0.0000
   1138 N60         11.3733    -7.1046    13.3505 N         1 MOL       0.0000
   1139 C371         9.7751    -7.7825    17.0459 C         1 MOL       0.0000
   1140 C372        20.8596   -13.5444    23.9889 C         1 MOL       0.0000
   1141 O237         6.7269   -11.6378    25.8892 O         1 MOL       0.0000
   1142 O238        13.1761    -9.0075    16.2948 O         1 MOL       0.0000
   1143 O239         7.6794   -13.3627    24.2659 O         1 MOL       0.0000
   1144 O240         7.3678     5.4055    13.8669 O         1 MOL       0.0000
   1145 F67          8.8620    -7.5627    18.0732 F         1 MOL       0.0000
   1146 F68         19.6525   -13.1598    24.4577 F         1 MOL       0.0000
   1147 F69         18.2364     4.7839    14.6038 F         1 MOL       0.0000
   1148 F70          9.8989    -9.1282    16.9309 F         1 MOL       0.0000
   1149 F71         22.5066   -12.6327    22.5324 F         1 MOL       0.0000
   1150 F72         15.0691    -1.8375    24.2688 F         1 MOL       0.0000
   1151 S23          6.7084   -12.9529    25.2517 S         1 MOL       0.0000
   1152 S24          6.2859     5.6489    14.8077 S         1 MOL       0.0000
   1153 Ti49         6.6276    16.2858    11.2794 Ti        1 MOL       0.0000
   1154 Ti50        17.4580    19.1670     1.9146 Ti        1 MOL       0.0000
   1155 Ti51        10.7242    12.3496     9.4594 Ti        1 MOL       0.0000
   1156 Ti52        12.2354    21.5117     3.6864 Ti        1 MOL       0.0000
   1157 Ti53        11.2369    23.1900     1.7820 Ti        1 MOL       0.0000
   1158 Ti54        12.6125    12.0952    11.4128 Ti        1 MOL       0.0000
   1159 Ti55         7.5768    14.5499     9.3879 Ti        1 MOL       0.0000
   1160 Ti56        15.4702    19.4695     3.7621 Ti        1 MOL       0.0000
   1161 H337         7.1294    20.1828    11.0599 H         1 MOL       0.0000
   1162 H338        18.2668    15.2609     2.2353 H         1 MOL       0.0000
   1163 H339         2.6677    15.5291    10.8970 H         1 MOL       0.0000
   1164 H340        20.8402    21.1713     2.1152 H         1 MOL       0.0000
   1165 H341        13.5881     8.0607    11.0269 H         1 MOL       0.0000
   1166 H342         7.1783    22.6001     2.1040 H         1 MOL       0.0000
   1167 H343         7.0963    14.4872    13.0039 H         1 MOL       0.0000
   1168 H344        15.5825    18.9243     0.2147 H         1 MOL       0.0000
   1169 H345        13.1224    11.4281     5.9017 H         1 MOL       0.0000
   1170 H346        10.5120    23.3487     7.3053 H         1 MOL       0.0000
   1171 H347         3.5041    17.9385     9.0320 H         1 MOL       0.0000
   1172 H348        20.2128    17.0826     4.2206 H         1 MOL       0.0000
   1173 H349         5.8052    16.4911     5.6982 H         1 MOL       0.0000
   1174 H350         8.1368    25.0179     4.1352 H         1 MOL       0.0000
   1175 H351        11.6291    26.2928     2.6375 H         1 MOL       0.0000
   1176 H352        18.1090    13.2421     3.4378 H         1 MOL       0.0000
   1177 H353        14.3281    21.1918     2.3478 H         1 MOL       0.0000
   1178 H354         9.6435    14.1980    10.7530 H         1 MOL       0.0000
   1179 H355        16.8472    14.0301     9.8025 H         1 MOL       0.0000
   1180 H356        15.3661    13.5610    10.5498 H         1 MOL       0.0000
   1181 H357        17.4213    18.4637     8.7035 H         1 MOL       0.0000
   1182 H358        16.8516    18.8223     7.0850 H         1 MOL       0.0000
   1183 H359        16.3584     9.0752     9.6124 H         1 MOL       0.0000
   1184 H360        15.0792    10.1758    10.0698 H         1 MOL       0.0000
   1185 C373        18.0361    18.4257     4.7781 C         1 MOL       0.0000
   1186 C374         5.6670    16.5472     8.4324 C         1 MOL       0.0000
   1187 C375        13.3048    11.3389     8.5347 C         1 MOL       0.0000
   1188 C376        10.2993    23.4822     4.6457 C         1 MOL       0.0000
   1189 C377        18.9321    17.8214     5.7733 C         1 MOL       0.0000
   1190 C378         4.7351    17.1722     7.4553 C         1 MOL       0.0000
   1191 C379        14.2450    10.7245     7.5875 C         1 MOL       0.0000
   1192 C380         9.4095    24.1290     5.6455 C         1 MOL       0.0000
   1193 C381        18.6833    17.8963     7.1797 C         1 MOL       0.0000
   1194 C382         4.9515    17.0522     6.0673 C         1 MOL       0.0000
   1195 C383        15.3744     9.9642     8.0406 C         1 MOL       0.0000
   1196 C384         8.3148    24.9020     5.2006 C         1 MOL       0.0000
   1197 C385         9.6640    23.9582     7.0004 C         1 MOL       0.0000
   1198 C386        13.9972    10.8566     6.2036 C         1 MOL       0.0000
   1199 C387        20.0658    17.1224     5.2976 C         1 MOL       0.0000
   1200 C388         3.6349    17.8646     7.9540 C         1 MOL       0.0000
   1201 C389        18.2478    15.3400     0.0912 C         1 MOL       0.0000
   1202 C390        11.7781    27.1316     0.1162 C         1 MOL       0.0000
   1203 C391        16.0973    14.0371    13.0602 C         1 MOL       0.0000
   1204 C392         2.7390    15.5795    13.0408 C         1 MOL       0.0000
   1205 C393        12.9822    19.1685     5.6510 C         1 MOL       0.0000
   1206 C394         8.2261    12.0742     7.5691 C         1 MOL       0.0000
   1207 C395        13.4770     9.7288    13.1630 C         1 MOL       0.0000
   1208 C396        11.6854    25.6981     0.0787 C         1 MOL       0.0000
   1209 C397        14.7995    13.4203    13.1070 C         1 MOL       0.0000
   1210 C398         4.1413    15.9939    13.0653 C         1 MOL       0.0000
   1211 C399        18.2872    14.6709     1.3209 C         1 MOL       0.0000
   1212 C400         7.1404    20.7713    11.9738 C         1 MOL       0.0000
   1213 C401         5.3876    21.9349     1.1091 C         1 MOL       0.0000
   1214 C402         2.1062    15.3498    11.8123 C         1 MOL       0.0000
   1215 C403        16.7919    14.3054    11.8268 C         1 MOL       0.0000
   1216 C404         6.6768    22.4151     1.1583 C         1 MOL       0.0000
   1217 C405        13.6297     7.5335    11.9759 C         1 MOL       0.0000
   1218 C406        18.3089    13.2698     1.4025 C         1 MOL       0.0000
   1219 N61         18.3639    12.6709     2.6406 N         1 MOL       0.0000
   1220 N62         16.2129    14.1226    10.5878 N         1 MOL       0.0000
   1221 N63         17.6025    18.5426     7.7110 N         1 MOL       0.0000
   1222 N64         15.7054     9.8060     9.3580 N         1 MOL       0.0000
   1223 O241        16.8598    18.8308     5.1439 O         1 MOL       0.0000
   1224 O242         6.4360    15.5963     8.0341 O         1 MOL       0.0000
   1225 O243        13.6862    11.4633     9.7558 O         1 MOL       0.0000
   1226 O244        10.2335    23.9119     3.4461 O         1 MOL       0.0000
   1227 O245        11.0698    22.5250     5.0322 O         1 MOL       0.0000
   1228 O246        12.1343    11.7073     8.1292 O         1 MOL       0.0000
   1229 O247        18.4480    18.5065     3.5664 O         1 MOL       0.0000
   1230 O248         5.6250    16.9834     9.6321 O         1 MOL       0.0000
   1231 O249        15.7754    18.2516     2.5674 O         1 MOL       0.0000
   1232 O250         8.1292    16.1102    10.1324 O         1 MOL       0.0000
   1233 O251        16.7142    20.5389     3.0173 O         1 MOL       0.0000
   1234 O252         6.3770    14.3855    10.6251 O         1 MOL       0.0000
   1235 O253        10.9835    11.1776    10.7198 O         1 MOL       0.0000
   1236 O254        12.7520    23.0730     2.9479 O         1 MOL       0.0000
   1237 O255        11.9375    13.4391    10.2557 O         1 MOL       0.0000
   1238 O256        11.0458    21.3159     2.4305 O         1 MOL       0.0000
   1239 O257        14.2033    18.9886     5.2967 O         1 MOL       0.0000
   1240 O258         7.5684    13.1091     7.9473 O         1 MOL       0.0000
   1241 O259        13.3548    10.3234    12.0219 O         1 MOL       0.0000
   1242 O260        11.6023    24.9966     1.1739 O         1 MOL       0.0000
   1243 O261        14.1569    13.1115    12.0168 O         1 MOL       0.0000
   1244 O262         9.3663    23.1609     1.1138 O         1 MOL       0.0000
   1245 O263         9.3879    11.7796     8.0269 O         1 MOL       0.0000
   1246 O264        12.2403    20.0894     5.1576 O         1 MOL       0.0000
   1247 O265        18.8951    20.1861     1.1600 O         1 MOL       0.0000
   1248 O266         4.7408    16.2257    11.9478 O         1 MOL       0.0000
   1249 O267        18.0995    17.4318     1.1894 O         1 MOL       0.0000
   1250 O268         7.0090    18.0080    12.0291 O         1 MOL       0.0000
   1251 O269        13.9672    20.6431     3.0684 O         1 MOL       0.0000
   1252 O270         9.2653    13.6393    10.0495 O         1 MOL       0.0000
   1253 O271        16.4213    19.4179     0.1356 O         1 MOL       0.0000
   1254 O272         7.2187    15.4540    13.0639 O         1 MOL       0.0000
   1255 H361        13.2718    15.5658     8.5988 H         1 MOL       0.0000
   1256 H362         2.8796    24.7084     6.0893 H         1 MOL       0.0000
   1257 H363        13.9095    24.1433     5.8292 H         1 MOL       0.0000
   1258 H364        14.1959    17.0477     6.7967 H         1 MOL       0.0000
   1259 H365         9.7023    17.9677     8.7372 H         1 MOL       0.0000
   1260 H366        21.5992    11.3471     7.1465 H         1 MOL       0.0000
   1261 H367        11.0124    15.9995     9.4998 H         1 MOL       0.0000
   1262 H368        10.6344    19.4564     6.9435 H         1 MOL       0.0000
   1263 H369        15.2397    22.3738     4.7041 H         1 MOL       0.0000
   1264 H370        17.7145    22.3761     4.8428 H         1 MOL       0.0000
   1265 C407        12.4547    18.3203     6.7457 C         1 MOL       0.0000
   1266 C408        11.4283    16.6709     8.7512 C         1 MOL       0.0000
   1267 C409        15.7477    23.1528     5.2722 C         1 MOL       0.0000
   1268 C410         7.5612    11.0905     6.6871 C         1 MOL       0.0000
   1269 C411        11.1963    18.5959     7.3074 C         1 MOL       0.0000
   1270 C412        12.7014    16.4166     8.2294 C         1 MOL       0.0000
   1271 C413        14.9962    24.1553     5.8948 C         1 MOL       0.0000
   1272 C414         1.7962    24.6976     5.9990 C         1 MOL       0.0000
   1273 C415        17.1452    23.1521     5.3505 C         1 MOL       0.0000
   1274 C416        22.1603    10.5533     6.6592 C         1 MOL       0.0000
   1275 C417        13.2180    17.2431     7.2318 C         1 MOL       0.0000
   1276 C418        10.6814    17.7687     8.3049 C         1 MOL       0.0000
   1277 N65         14.8091    24.6668     1.3608 N         1 MOL       0.0000
   1278 N66         11.4207    16.4748    13.0599 N         1 MOL       0.0000
   1279 C419        14.5821    25.1651     0.0908 C         1 MOL       0.0000
   1280 C420        10.7060    17.3928    12.3029 C         1 MOL       0.0000
   1281 C421        13.6863    16.5834    12.0418 C         1 MOL       0.0000
   1282 C422        14.4294    25.3358     2.6166 C         1 MOL       0.0000
   1283 C423        15.7316    23.6890     1.2686 C         1 MOL       0.0000
   1284 C424        12.5578    15.6872    12.5483 C         1 MOL       0.0000
   1285 H371         9.3747    18.9935    13.0194 H         1 MOL       0.0000
   1286 H372        10.8213    17.4889    11.2286 H         1 MOL       0.0000
   1287 H373        13.3376    17.2131    11.2124 H         1 MOL       0.0000
   1288 H374        14.3807    26.4059     2.4144 H         1 MOL       0.0000
   1289 H375        14.0791    17.2496    12.8262 H         1 MOL       0.0000
   1290 H376        13.4928    24.9253     2.9792 H         1 MOL       0.0000
   1291 H377        14.5045    15.9592    11.6553 H         1 MOL       0.0000
   1292 H378        12.1783    15.0292    11.7576 H         1 MOL       0.0000
   1293 H379        15.2260    25.1707     3.3380 H         1 MOL       0.0000
   1294 H380        16.2044    23.1551     2.0693 H         1 MOL       0.0000
   1295 H381        17.5207    22.1232     0.2852 H         1 MOL       0.0000
   1296 N67         18.3102     6.7324    12.9214 N         1 MOL       0.0000
   1297 C425        10.5327    14.5969     1.1693 C         1 MOL       0.0000
   1298 C426        19.2861     9.0084     9.5594 C         1 MOL       0.0000
   1299 O273         7.6279    14.5555     2.8149 O         1 MOL       0.0000
   1300 O274         3.1857    26.5732     1.3337 O         1 MOL       0.0000
   1301 O275        10.8218    20.4316    10.4353 O         1 MOL       0.0000
   1302 O276        12.7951    20.6731     8.9056 O         1 MOL       0.0000
   1303 F73         10.2097    15.3859     2.2741 F         1 MOL       0.0000
   1304 F74         19.0849    11.0983    11.7125 F         1 MOL       0.0000
   1305 F75         11.6573    15.1981     0.6686 F         1 MOL       0.0000
   1306 F76          9.1214    14.3065     4.5104 F         1 MOL       0.0000
   1307 F77         18.7957    10.2471     9.5315 F         1 MOL       0.0000
   1308 F78         12.2704    23.0292     8.3491 F         1 MOL       0.0000
   1309 S25         23.7955    13.2164     0.8596 S         1 MOL       0.0000
   1310 S26         12.1977    20.8149    10.2175 S         1 MOL       0.0000
   1311 N68         13.0311    15.6456     3.6493 N         1 MOL       0.0000
   1312 N69         11.2014    16.4141     4.5556 N         1 MOL       0.0000
   1313 C427        14.2127    15.5463     2.7661 C         1 MOL       0.0000
   1314 C428        12.1100    16.6232     3.5860 C         1 MOL       0.0000
   1315 C429        12.7134    14.7884     4.6915 C         1 MOL       0.0000
   1316 C430        14.4142    14.1702     2.1365 C         1 MOL       0.0000
   1317 C431        11.5675    15.2781     5.2524 C         1 MOL       0.0000
   1318 C432         9.9194    17.1143     4.6800 C         1 MOL       0.0000
   1319 H382        15.0878    15.8500     3.3561 H         1 MOL       0.0000
   1320 H383        14.0877    16.3197     2.0008 H         1 MOL       0.0000
   1321 H384        12.0497    17.3843     2.8277 H         1 MOL       0.0000
   1322 H385        15.4131    14.1561     1.6805 H         1 MOL       0.0000
   1323 H386        13.3019    13.9192     4.9246 H         1 MOL       0.0000
   1324 H387         9.7901    17.4277     5.7161 H         1 MOL       0.0000
   1325 H388         9.9345    17.9891     4.0202 H         1 MOL       0.0000
   1326 H389        14.3634    13.3704     2.8847 H         1 MOL       0.0000
   1327 H390        10.9643    14.8722     6.0504 H         1 MOL       0.0000
   1328 H391        13.6591    13.9462     1.3774 H         1 MOL       0.0000
   1329 H392         9.1229    16.4270     4.3775 H         1 MOL       0.0000
   1330 N70          9.4913    14.5744     0.1985 N         1 MOL       0.0000
   1331 C433         7.8931    13.8965     3.8939 C         1 MOL       0.0000
   1332 C434        18.9776     8.1346    10.8369 C         1 MOL       0.0000
   1333 O277         4.8449    10.0412    12.7372 O         1 MOL       0.0000
   1334 O278        11.2941    12.6715     3.1428 O         1 MOL       0.0000
   1335 O279         5.7974     8.3163    11.1139 O         1 MOL       0.0000
   1336 O280         5.4858    27.0845     0.7149 O         1 MOL       0.0000
   1337 F79          6.9800    14.1163     4.9212 F         1 MOL       0.0000
   1338 F80         17.7705     8.5192    11.3057 F         1 MOL       0.0000
   1339 F81         16.3544    26.4629     1.4518 F         1 MOL       0.0000
   1340 F82          8.0169    12.5508     3.7789 F         1 MOL       0.0000
   1341 F83         20.6246     9.0463     9.3804 F         1 MOL       0.0000
   1342 F84         13.1871    19.8415    11.1168 F         1 MOL       0.0000
   1343 S27          4.8264     8.7261    12.0997 S         1 MOL       0.0000
   1344 S28          4.4039    27.3279     1.6557 S         1 MOL       0.0000
   1345 Ti57         1.9926     9.2198    24.3744 Ti        1 MOL       0.0000
   1346 Ti58        12.8230    12.1010    15.0096 Ti        1 MOL       0.0000
   1347 Ti59         6.0892     5.2836    22.5544 Ti        1 MOL       0.0000
   1348 Ti60         7.6004    14.4457    16.7814 Ti        1 MOL       0.0000
   1349 Ti61         6.6019    16.1240    14.8770 Ti        1 MOL       0.0000
   1350 Ti62         7.9775     5.0292    24.5078 Ti        1 MOL       0.0000
   1351 Ti63         2.9418     7.4839    22.4829 Ti        1 MOL       0.0000
   1352 Ti64        10.8352    12.4035    16.8571 Ti        1 MOL       0.0000
   1353 H393         2.4944    13.1168    24.1549 H         1 MOL       0.0000
   1354 H394        13.6318     8.1949    15.3303 H         1 MOL       0.0000
   1355 H395        -1.9673     8.4631    23.9920 H         1 MOL       0.0000
   1356 H396        16.2052    14.1053    15.2102 H         1 MOL       0.0000
   1357 H397         8.9531     0.9947    24.1219 H         1 MOL       0.0000
   1358 H398         2.5433    15.5341    15.1991 H         1 MOL       0.0000
   1359 H399         2.4613     7.4212    26.0989 H         1 MOL       0.0000
   1360 H400        10.9475    11.8583    13.3096 H         1 MOL       0.0000
   1361 H401         8.4874     4.3621    18.9967 H         1 MOL       0.0000
   1362 H402         5.8770    16.2827    20.4003 H         1 MOL       0.0000
   1363 H403        -1.1309    10.8725    22.1270 H         1 MOL       0.0000
   1364 H404        15.5778    10.0166    17.3156 H         1 MOL       0.0000
   1365 H405         1.1702     9.4251    18.7932 H         1 MOL       0.0000
   1366 H406         3.5018    17.9519    17.2302 H         1 MOL       0.0000
   1367 H407         6.9941    19.2268    15.7325 H         1 MOL       0.0000
   1368 H408        13.4740     6.1761    16.5328 H         1 MOL       0.0000
   1369 H409         9.6931    14.1258    15.4428 H         1 MOL       0.0000
   1370 H410         5.0085     7.1320    23.8480 H         1 MOL       0.0000
   1371 H411        12.2122     6.9641    22.8975 H         1 MOL       0.0000
   1372 H412        10.7311     6.4950    23.6448 H         1 MOL       0.0000
   1373 H413        12.7863    11.3977    21.7985 H         1 MOL       0.0000
   1374 H414        12.2166    11.7563    20.1800 H         1 MOL       0.0000
   1375 H415        11.7234     2.0092    22.7074 H         1 MOL       0.0000
   1376 H416        10.4442     3.1098    23.1648 H         1 MOL       0.0000
   1377 C435        13.4011    11.3597    17.8731 C         1 MOL       0.0000
   1378 C436         1.0320     9.4811    21.5274 C         1 MOL       0.0000
   1379 C437         8.6698     4.2729    21.6297 C         1 MOL       0.0000
   1380 C438         5.6643    16.4162    17.7407 C         1 MOL       0.0000
   1381 C439        14.2971    10.7554    18.8683 C         1 MOL       0.0000
   1382 C440         0.1001    10.1062    20.5503 C         1 MOL       0.0000
   1383 C441         9.6100     3.6585    20.6825 C         1 MOL       0.0000
   1384 C442         4.7745    17.0630    18.7405 C         1 MOL       0.0000
   1385 C443        14.0483    10.8303    20.2747 C         1 MOL       0.0000
   1386 C444         0.3165     9.9862    19.1623 C         1 MOL       0.0000
   1387 C445        10.7394     2.8982    21.1356 C         1 MOL       0.0000
   1388 C446         3.6798    17.8360    18.2956 C         1 MOL       0.0000
   1389 C447         5.0290    16.8923    20.0954 C         1 MOL       0.0000
   1390 C448         9.3622     3.7906    19.2986 C         1 MOL       0.0000
   1391 C449        15.4308    10.0564    18.3926 C         1 MOL       0.0000
   1392 C450        -1.0001    10.7986    21.0490 C         1 MOL       0.0000
   1393 C451        13.6128     8.2740    13.1862 C         1 MOL       0.0000
   1394 C452         7.1431    20.0656    13.2112 C         1 MOL       0.0000
   1395 C453        11.4623     6.9711    26.1552 C         1 MOL       0.0000
   1396 C454        -1.8960     8.5135    26.1358 C         1 MOL       0.0000
   1397 C455         8.3472    12.1025    18.7460 C         1 MOL       0.0000
   1398 C456         3.5911     5.0082    20.6641 C         1 MOL       0.0000
   1399 C457         8.8420     2.6628    26.2580 C         1 MOL       0.0000
   1400 C458         7.0504    18.6321    13.1737 C         1 MOL       0.0000
   1401 C459        10.1645     6.3543    26.2020 C         1 MOL       0.0000
   1402 C460        -0.4937     8.9279    26.1603 C         1 MOL       0.0000
   1403 C461        13.6522     7.6049    14.4159 C         1 MOL       0.0000
   1404 C462         2.5054    13.7053    25.0688 C         1 MOL       0.0000
   1405 C463         0.7526    14.8689    14.2041 C         1 MOL       0.0000
   1406 C464        -2.5288     8.2838    24.9073 C         1 MOL       0.0000
   1407 C465        12.1569     7.2394    24.9218 C         1 MOL       0.0000
   1408 C466         2.0418    15.3491    14.2533 C         1 MOL       0.0000
   1409 C467         8.9947     0.4675    25.0709 C         1 MOL       0.0000
   1410 C468        13.6739     6.2038    14.4975 C         1 MOL       0.0000
   1411 N71         13.7289     5.6049    15.7356 N         1 MOL       0.0000
   1412 N72         11.5779     7.0566    23.6828 N         1 MOL       0.0000
   1413 N73         12.9675    11.4766    20.8060 N         1 MOL       0.0000
   1414 N74         11.0704     2.7400    22.4530 N         1 MOL       0.0000
   1415 O281        12.2248    11.7648    18.2389 O         1 MOL       0.0000
   1416 O282         1.8010     8.5303    21.1291 O         1 MOL       0.0000
   1417 O283         9.0512     4.3973    22.8508 O         1 MOL       0.0000
   1418 O284         5.5985    16.8459    16.5412 O         1 MOL       0.0000
   1419 O285         6.4348    15.4590    18.1272 O         1 MOL       0.0000
   1420 O286         7.4993     4.6413    21.2242 O         1 MOL       0.0000
   1421 O287        13.8130    11.4405    16.6614 O         1 MOL       0.0000
   1422 O288         0.9900     9.9174    22.7271 O         1 MOL       0.0000
   1423 O289        11.1404    11.1856    15.6624 O         1 MOL       0.0000
   1424 O290         3.4942     9.0442    23.2274 O         1 MOL       0.0000
   1425 O291        12.0792    13.4729    16.1123 O         1 MOL       0.0000
   1426 O292         1.7420     7.3195    23.7201 O         1 MOL       0.0000
   1427 O293         6.3486     4.1116    23.8148 O         1 MOL       0.0000
   1428 O294         8.1170    16.0070    16.0429 O         1 MOL       0.0000
   1429 O295         7.3025     6.3731    23.3507 O         1 MOL       0.0000
   1430 O296         6.4108    14.2499    15.5255 O         1 MOL       0.0000
   1431 O297         9.5683    11.9226    18.3917 O         1 MOL       0.0000
   1432 O298         2.9334     6.0431    21.0423 O         1 MOL       0.0000
   1433 O299         8.7198     3.2574    25.1169 O         1 MOL       0.0000
   1434 O300         6.9673    17.9306    14.2689 O         1 MOL       0.0000
   1435 O301         9.5219     6.0455    25.1118 O         1 MOL       0.0000
   1436 O302         4.7313    16.0949    14.2088 O         1 MOL       0.0000
   1437 O303         4.7529     4.7136    21.1219 O         1 MOL       0.0000
   1438 O304         7.6053    13.0234    18.2526 O         1 MOL       0.0000
   1439 O305        14.2601    13.1201    14.2550 O         1 MOL       0.0000
   1440 O306         0.1058     9.1597    25.0428 O         1 MOL       0.0000
   1441 O307        13.4645    10.3658    14.2844 O         1 MOL       0.0000
   1442 O308         2.3740    10.9420    25.1241 O         1 MOL       0.0000
   1443 O309         9.3322    13.5771    16.1634 O         1 MOL       0.0000
   1444 O310         4.6303     6.5733    23.1445 O         1 MOL       0.0000
   1445 O311        11.7863    12.3519    13.2306 O         1 MOL       0.0000
   1446 O312         2.5837     8.3880    26.1589 O         1 MOL       0.0000
   1447 H417         8.6368     8.4998    21.6938 H         1 MOL       0.0000
   1448 H418        -1.7554    17.6424    19.1843 H         1 MOL       0.0000
   1449 H419         9.2745    17.0773    18.9242 H         1 MOL       0.0000
   1450 H420         9.5609     9.9817    19.8917 H         1 MOL       0.0000
   1451 H421         5.0673    10.9017    21.8322 H         1 MOL       0.0000
   1452 H422        16.9642     4.2811    20.2415 H         1 MOL       0.0000
   1453 H423         6.3774     8.9335    22.5948 H         1 MOL       0.0000
   1454 H424         5.9994    12.3904    20.0385 H         1 MOL       0.0000
   1455 H425        10.6047    15.3078    17.7991 H         1 MOL       0.0000
   1456 H426        13.0795    15.3101    17.9378 H         1 MOL       0.0000
   1457 C469         7.8197    11.2543    19.8407 C         1 MOL       0.0000
   1458 C470         6.7933     9.6049    21.8462 C         1 MOL       0.0000
   1459 C471        11.1127    16.0868    18.3672 C         1 MOL       0.0000
   1460 C472         2.9262     4.0245    19.7821 C         1 MOL       0.0000
   1461 C473         6.5613    11.5299    20.4024 C         1 MOL       0.0000
   1462 C474         8.0664     9.3506    21.3244 C         1 MOL       0.0000
   1463 C475        10.3612    17.0893    18.9898 C         1 MOL       0.0000
   1464 C476        -2.8388    17.6316    19.0940 C         1 MOL       0.0000
   1465 C477        12.5102    16.0861    18.4455 C         1 MOL       0.0000
   1466 C478        17.5253     3.4873    19.7542 C         1 MOL       0.0000
   1467 C479         8.5830    10.1771    20.3268 C         1 MOL       0.0000
   1468 C480         6.0464    10.7027    21.3999 C         1 MOL       0.0000
   1469 N75         10.1741    17.6008    14.4558 N         1 MOL       0.0000
   1470 N76          6.7857     9.4088    26.1549 N         1 MOL       0.0000
   1471 C481         9.9471    18.0991    13.1858 C         1 MOL       0.0000
   1472 C482         6.0710    10.3268    25.3979 C         1 MOL       0.0000
   1473 C483         9.0513     9.5174    25.1368 C         1 MOL       0.0000
   1474 C484         9.7944    18.2698    15.7116 C         1 MOL       0.0000
   1475 C485        11.0966    16.6230    14.3636 C         1 MOL       0.0000
   1476 C486         7.9228     8.6212    25.6433 C         1 MOL       0.0000
   1477 H427         4.7397    11.9275    26.1144 H         1 MOL       0.0000
   1478 H428         6.1863    10.4229    24.3236 H         1 MOL       0.0000
   1479 H429         8.7026    10.1471    24.3074 H         1 MOL       0.0000
   1480 H430         9.7457    19.3399    15.5094 H         1 MOL       0.0000
   1481 H431         9.4441    10.1836    25.9212 H         1 MOL       0.0000
   1482 H432         8.8578    17.8593    16.0742 H         1 MOL       0.0000
   1483 H433         9.8695     8.8932    24.7503 H         1 MOL       0.0000
   1484 H434         7.5433     7.9632    24.8526 H         1 MOL       0.0000
   1485 H435        10.5910    18.1047    16.4330 H         1 MOL       0.0000
   1486 H436        11.5694    16.0891    15.1643 H         1 MOL       0.0000
   1487 H437        12.8857    15.0572    13.3802 H         1 MOL       0.0000
   1488 N77         13.6752    -0.3336    26.0164 N         1 MOL       0.0000
   1489 C487         5.8977     7.5309    14.2643 C         1 MOL       0.0000
   1490 C488        14.6511     1.9424    22.6544 C         1 MOL       0.0000
   1491 O313         2.9929     7.4895    15.9099 O         1 MOL       0.0000
   1492 O314        -1.4493    19.5072    14.4287 O         1 MOL       0.0000
   1493 O315         6.1868    13.3656    23.5303 O         1 MOL       0.0000
   1494 O316         8.1601    13.6071    22.0006 O         1 MOL       0.0000
   1495 F85          5.5747     8.3199    15.3691 F         1 MOL       0.0000
   1496 F86         14.4499     4.0323    24.8075 F         1 MOL       0.0000
   1497 F87          7.0223     8.1321    13.7636 F         1 MOL       0.0000
   1498 F88          4.4864     7.2405    17.6054 F         1 MOL       0.0000
   1499 F89         14.1607     3.1811    22.6265 F         1 MOL       0.0000
   1500 F90          7.6354    15.9632    21.4441 F         1 MOL       0.0000
   1501 S29         19.1605     6.1504    13.9546 S         1 MOL       0.0000
   1502 S30          7.5627    13.7489    23.3125 S         1 MOL       0.0000
   1503 N78          8.3961     8.5796    16.7443 N         1 MOL       0.0000
   1504 N79          6.5664     9.3481    17.6506 N         1 MOL       0.0000
   1505 C489         9.5777     8.4803    15.8611 C         1 MOL       0.0000
   1506 C490         7.4750     9.5572    16.6810 C         1 MOL       0.0000
   1507 C491         8.0784     7.7224    17.7865 C         1 MOL       0.0000
   1508 C492         9.7792     7.1042    15.2315 C         1 MOL       0.0000
   1509 C493         6.9325     8.2121    18.3474 C         1 MOL       0.0000
   1510 C494         5.2844    10.0483    17.7750 C         1 MOL       0.0000
   1511 H438        10.4528     8.7840    16.4511 H         1 MOL       0.0000
   1512 H439         9.4527     9.2537    15.0958 H         1 MOL       0.0000
   1513 H440         7.4147    10.3183    15.9227 H         1 MOL       0.0000
   1514 H441        10.7781     7.0901    14.7755 H         1 MOL       0.0000
   1515 H442         8.6669     6.8532    18.0196 H         1 MOL       0.0000
   1516 H443         5.1551    10.3617    18.8111 H         1 MOL       0.0000
   1517 H444         5.2995    10.9231    17.1152 H         1 MOL       0.0000
   1518 H445         9.7284     6.3044    15.9797 H         1 MOL       0.0000
   1519 H446         6.3293     7.8062    19.1454 H         1 MOL       0.0000
   1520 H447         9.0241     6.8802    14.4724 H         1 MOL       0.0000
   1521 H448         4.4879     9.3610    17.4725 H         1 MOL       0.0000
   1522 N80          4.8563     7.5084    13.2935 N         1 MOL       0.0000
   1523 C495         3.2581     6.8305    16.9889 C         1 MOL       0.0000
   1524 C496        14.3426     1.0686    23.9319 C         1 MOL       0.0000
   1525 O317         0.2099     2.9752    25.8322 O         1 MOL       0.0000
   1526 O318         6.6591     5.6055    16.2378 O         1 MOL       0.0000
   1527 O319         1.1624     1.2503    24.2089 O         1 MOL       0.0000
   1528 O320         0.8508    20.0185    13.8099 O         1 MOL       0.0000
   1529 F91          2.3450     7.0503    18.0162 F         1 MOL       0.0000
   1530 F92         13.1355     1.4532    24.4007 F         1 MOL       0.0000
   1531 F93         11.7194    19.3969    14.5468 F         1 MOL       0.0000
   1532 F94          3.3819     5.4848    16.8739 F         1 MOL       0.0000
   1533 F95         15.9896     1.9803    22.4754 F         1 MOL       0.0000
   1534 F96          8.5521    12.7755    24.2118 F         1 MOL       0.0000
   1535 S31          0.1914     1.6601    25.1947 S         1 MOL       0.0000
   1536 S32         -0.2311    20.2619    14.7507 S         1 MOL       0.0000
@<TRIPOS>BOND
     1     1    78 1
     2     1    96 1
     3     7    88 1
     4     7   100 1
     5     1     7 1
     6     1    80 1
     7     1    82 1
     8     7    72 1
     9     7    80 1
    10     7    82 1
    11     1   102 1
    12     1   197 1
    13     1    98 1
    14     2     8 1
    15     2    79 1
    16     2    81 1
    17     2   101 1
    18     2    97 1
    19     2    77 1
    20     2    95 1
    21     3    93 1
    22     3   100 1
    23     3    76 1
    24     3    83 1
    25     3    85 1
    26     3     6 1
    27     4    86 1
    28     4    94 1
    29     4     5 1
    30     4    84 1
    31     4    75 1
    32     4    99 1
    33     5    92 1
    34     5    86 1
    35     5    74 1
    36     5    84 1
    37     5    90 1
    38     6    83 1
    39     6    85 1
    40     6   194 1
    41     6   293 1
    42   194   293 1
    43   208   293 1
    44   194   200 1
    45   194   271 1
    46   194   273 1
    47     6    73 1
    48     6    89 1
    49     6    91 1
    50   194   287 1
    51   194   289 1
    52   194   269 1
    53     8    79 1
    54     8    81 1
    55     8    99 1
    56    16   101 1
    57    25    99 1
    58     8    71 1
    59     8    87 1
    60     9    60 1
    61    59    66 1
    62    10    59 1
    63    49    59 1
    64    34    38 1
    65    34    78 1
    66    11    62 1
    67    34    72 1
    68    12   829 1
    69   829   832 1
    70    31    70 1
    71    32    70 1
    72    43    70 1
    73    13    65 1
    74    14    64 1
    75   197   284 1
    76   197   266 1
    77    15   102 1
    78   102   197 1
    79   197   276 1
    80   197   278 1
    81   197   282 1
    82    17    46 1
    83    36    40 1
    84    45   427 1
    85    36    74 1
    86    18    45 1
    87    36    75 1
    88    19    48 1
    89    20    47 1
    90    47   810 1
    91    21    42 1
    92   154   179 1
    93    22    44 1
    94    40    44 1
    95    44   430 1
    96    40    45 1
    97    56    90 1
    98    23   451 1
    99    50    56 1
   100    50   450 1
   101   408   451 1
   102   450   451 1
   103    24    67 1
   104    66    67 1
   105    26   100 1
   106   118   123 1
   107   109   114 1
   108   114   118 1
   109   114   124 1
   110    35    76 1
   111    39    43 1
   112    39    46 1
   113    35    39 1
   114    35    73 1
   115    27    68 1
   116    28    68 1
   117    29    69 1
   118    30    69 1
   119    33    71 1
   120    37    47 1
   121    41   816 1
   122    33    77 1
   123    33    37 1
   124    37    41 1
   125    41    69 1
   126    38    42 1
   127    38    48 1
   128    51    57 1
   129    57    91 1
   130    57   287 1
   131    51    63 1
   132    51  1021 1
   133    52    58 1
   134    52    62 1
   135    52   256 1
   136    58    96 1
   137    58   284 1
   138   113   123 1
   139   117   124 1
   140    53    94 1
   141    53   113 1
   142   110   117 1
   143   113   117 1
   144    53    87 1
   145    54   116 1
   146    54    88 1
   147    54    93 1
   148   251   258 1
   149    55   241 1
   150    65   241 1
   151   241   251 1
   152    55    89 1
   153    55   289 1
   154    60   242 1
   155    98   248 1
   156   242   248 1
   157   242   642 1
   158   248   282 1
   159   642   643 1
   160    60   449 1
   161   133   319 1
   162    61    64 1
   163   129   132 1
   164    63    68 1
   165   129   135 1
   166   129   137 1
   167   129   139 1
   168    63   830 1
   169  1021  1024 1
   170   103   118 1
   171   104   120 1
   172   105   119 1
   173   111   115 1
   174   115   119 1
   175   119   506 1
   176   115   121 1
   177   506  1268 1
   178   106   123 1
   179   107   124 1
   180   149   158 1
   181   150   158 1
   182   158   190 1
   183   158   564 1
   184   108   122 1
   185   122   884 1
   186   947   953 1
   187   947   956 1
   188   112   121 1
   189   121   888 1
   190   872   888 1
   191   888  1268 1
   192   179   188 1
   193   179   185 1
   194   120   500 1
   195   166   177 1
   196   160   162 1
   197   160   165 1
   198   160   166 1
   199   163   165 1
   200   165   175 1
   201   166   172 1
   202   166   173 1
   203   163   171 1
   204   125   127 1
   205   125   131 1
   206   131   142 1
   207   125   130 1
   208   128   134 1
   209   126   128 1
   210   126   132 1
   211   126   323 1
   212   132   140 1
   213   132   335 1
   214   317   323 1
   215   323   334 1
   216   128   319 1
   217   317   319 1
   218   317   322 1
   219   130   138 1
   220   130   141 1
   221   130   136 1
   222   187   541 1
   223   144   349 1
   224   145   151 1
   225   145   153 1
   226   145   178 1
   227   159   162 1
   228   162   169 1
   229   159   163 1
   230   159   161 1
   231   146   155 1
   232   146   180 1
   233   146   189 1
   234   180   186 1
   235   147   179 1
   236   148   192 1
   237   184   192 1
   238   192   566 1
   239   192   529 1
   240   415   454 1
   241   156   530 1
   242   530   539 1
   243   530   564 1
   244   564   570 1
   245   530   573 1
   246   915   947 1
   247   157   946 1
   248   164   174 1
   249   164   176 1
   250   161   164 1
   251   161   167 1
   252   161   168 1
   253   164   170 1
   254   181   191 1
   255   191   370 1
   256   183   191 1
   257   193   270 1
   258   193   274 1
   259   193   288 1
   260   193   199 1
   261   193   272 1
   262   193   294 1
   263   207   294 1
   264   218   292 1
   265   193   290 1
   266   195   285 1
   267   195   292 1
   268   195   268 1
   269   195   198 1
   270   195   275 1
   271   195   277 1
   272   198   265 1
   273   198   275 1
   274   198   277 1
   275   198   281 1
   276   198   283 1
   277   196   286 1
   278   196   291 1
   279   196   197 1
   280   196   267 1
   281   196   276 1
   282   196   278 1
   283   199   264 1
   284   199   274 1
   285   199   280 1
   286   199   272 1
   287   199   292 1
   288   200   291 1
   289   200   263 1
   290   200   271 1
   291   200   273 1
   292   200   279 1
   293   201   252 1
   294   252   641 1
   295   202   251 1
   296   212   239 1
   297   239  1002 1
   298   203   254 1
   299   244   254 1
   300   244   250 1
   301   204  1021 1
   302   205   257 1
   303   247   281 1
   304   206   256 1
   305   228   232 1
   306   228   266 1
   307   232   237 1
   308   232   236 1
   309   228   267 1
   310   209   238 1
   311   227   268 1
   312   227   265 1
   313   227   231 1
   314   210   237 1
   315   348   722 1
   316   297   311 1
   317   211   240 1
   318   213   234 1
   319   226   230 1
   320   226   264 1
   321   230   234 1
   322   226   270 1
   323   230   240 1
   324   214   236 1
   325   236   622 1
   326   215   643 1
   327   600   643 1
   328   216   259 1
   329   217   291 1
   330   303   307 1
   331   304   313 1
   332   307   313 1
   333   307   311 1
   334   313  1080 1
   335   243   249 1
   336   219   260 1
   337   243   255 1
   338   255   260 1
   339   255  1022 1
   340   224   262 1
   341   249   283 1
   342   220   260 1
   343   221   261 1
   344   222   261 1
   345   223   262 1
   346   225   263 1
   347   225   269 1
   348   225   229 1
   349   233   261 1
   350   229   239 1
   351   233  1008 1
   352   979  1008 1
   353   229   233 1
   354   231   238 1
   355   235   262 1
   356   231   235 1
   357   237   619 1
   358   619   646 1
   359   245   286 1
   360   245   305 1
   361   245   279 1
   362   246   280 1
   363   246   285 1
   364   246   308 1
   365   250   288 1
   366   253   256 1
   367   258   259 1
   368   295   310 1
   369   306   310 1
   370   310   315 1
   371   306   316 1
   372   296   312 1
   373   298   315 1
   374   299   316 1
   375   300   314 1
   376   301   306 1
   377   318   324 1
   378   321   324 1
   379   321   327 1
   380   321   329 1
   381   324   332 1
   382   318   320 1
   383   321   331 1
   384   305   315 1
   385   302   309 1
   386   305   309 1
   387   309   316 1
   388   342   350 1
   389   311   698 1
   390  1080  1460 1
   391   312   692 1
   392   314  1076 1
   393  1014  1048 1
   394  1014  1076 1
   395  1014  1053 1
   396   379   733 1
   397   528   733 1
   398   733  1522 1
   399   320   326 1
   400   341   350 1
   401   350   382 1
   402   350   756 1
   403   322   330 1
   404   322   328 1
   405   322   333 1
   406  1491  1523 1
   407  1523  1529 1
   408  1523  1532 1
   409   372   378 1
   410   338   381 1
   411   338   372 1
   412  1141  1151 1
   413   338   347 1
   414   337   370 1
   415   337   343 1
   416   337   345 1
   417   371   380 1
   418   339   371 1
   419   346   371 1
   420   358   369 1
   421   371   377 1
   422   358   365 1
   423   358   364 1
   424   340   384 1
   425   376   384 1
   426   384   758 1
   427   384   721 1
   428   349  1138 1
   429   352   358 1
   430   351   354 1
   431   351   355 1
   432   352   354 1
   433   352   357 1
   434   355   357 1
   435   355   363 1
   436   357   367 1
   437   354   361 1
   438   351   353 1
   439   356   368 1
   440   353   360 1
   441   356   366 1
   442   356   362 1
   443   353   356 1
   444   353   359 1
   445   373   383 1
   446   375   383 1
   447   418   422 1
   448   385   480 1
   449   385   466 1
   450   391   466 1
   451   391   472 1
   452   385   391 1
   453   385   462 1
   454   385   464 1
   455   391   456 1
   456   391   464 1
   457   418   456 1
   458   418   462 1
   459   385   482 1
   460   385   486 1
   461   385   581 1
   462   391   484 1
   463   386   392 1
   464   386   463 1
   465   386   481 1
   466   386   461 1
   467   386   465 1
   468   386   479 1
   469   386   485 1
   470   387   460 1
   471   387   467 1
   472   387   469 1
   473   387   477 1
   474   387   484 1
   475   410   484 1
   476   387   390 1
   477   388   470 1
   478   388   478 1
   479   388   389 1
   480   388   459 1
   481   388   483 1
   482   388   468 1
   483   389   470 1
   484   389   458 1
   485   389   474 1
   486   389   476 1
   487   389   468 1
   488   390   467 1
   489   390   469 1
   490   390   677 1
   491   578   677 1
   492   578   584 1
   493   578   655 1
   494   578   657 1
   495   390   473 1
   496   578   673 1
   497   390   457 1
   498   390   475 1
   499   390   578 1
   500   441   475 1
   501   441   671 1
   502   578   671 1
   503   578   653 1
   504   392   463 1
   505   392   483 1
   506   409   483 1
   507   392   471 1
   508   392   465 1
   509   400   485 1
   510   392   455 1
   511   393   444 1
   512   443   450 1
   513   394   443 1
   514   433   443 1
   515   403   432 1
   516   395   446 1
   517   396  1213 1
   518  1213  1216 1
   519   416   454 1
   520   427   454 1
   521   397   449 1
   522   398   448 1
   523   581   668 1
   524   581   662 1
   525   399   486 1
   526   486   581 1
   527   581   666 1
   528   581   650 1
   529   581   660 1
   530   482   632 1
   531   423   427 1
   532   401   430 1
   533   423   430 1
   534   424   428 1
   535   420   458 1
   536   402   429 1
   537   420   424 1
   538   420   459 1
   539   424   429 1
   540  1190  1200 1
   541   404   431 1
   542   431  1194 1
   543  1173  1194 1
   544  1190  1194 1
   545   405   426 1
   546   406   428 1
   547   434   440 1
   548   411   452 1
   549   419   460 1
   550   419   423 1
   551   419   457 1
   552   412   452 1
   553   413   453 1
   554   417   421 1
   555   417   461 1
   556   417   455 1
   557   414   453 1
   558   421   425 1
   559   425  1200 1
   560   425   453 1
   561   421   431 1
   562   422   432 1
   563   422   426 1
   564   435   441 1
   565   447   452 1
   566   435   447 1
   567   435  1405 1
   568   447  1214 1
   569  1405  1408 1
   570   436   442 1
   571   436   446 1
   572   436   640 1
   573   442   480 1
   574   442   668 1
   575   437   478 1
   576   497   501 1
   577   497   507 1
   578   437   471 1
   579   437   497 1
   580   563   572 1
   581   438   500 1
   582   563   569 1
   583   438   472 1
   584   438   477 1
   585   635   642 1
   586   439   473 1
   587   439   625 1
   588   439   673 1
   589   449   625 1
   590   625   635 1
   591   440   474 1
   592   632   666 1
   593   444   626 1
   594   626   632 1
   595   445   448 1
   596   509   511 1
   597   509   514 1
   598   509   515 1
   599   514   522 1
   600   514   525 1
   601   514   520 1
   602   515   526 1
   603   501   508 1
   604   494   501 1
   605   502   507 1
   606   487   502 1
   607   488   504 1
   608   489   503 1
   609   495   499 1
   610   499   503 1
   611   499   505 1
   612   547   549 1
   613   547   555 1
   614   490   507 1
   615   491   508 1
   616   493   498 1
   617   498   508 1
   618   498   502 1
   619   492   506 1
   620   496   505 1
   621   505  1272 1
   622  1256  1272 1
   623   512   518 1
   624   510   512 1
   625   510   707 1
   626   512   703 1
   627   701   703 1
   628   701   707 1
   629   707   718 1
   630   701   706 1
   631   510   516 1
   632   516   524 1
   633   513   519 1
   634   513   516 1
   635   513   521 1
   636   513   523 1
   637   516   719 1
   638   517   703 1
   639   529   535 1
   640   529   537 1
   641   529   562 1
   642   546   553 1
   643   531   563 1
   644   532   576 1
   645   533   542 1
   646   542   574 1
   647   534   542 1
   648   538   563 1
   649   541  1330 1
   650   916   960 1
   651   960  1297 1
   652  1297  1330 1
   653  1299  1331 1
   654  1297  1303 1
   655   960  1334 1
   656  1297  1305 1
   657   543   546 1
   658   545   548 1
   659   543   545 1
   660   545   551 1
   661   545   552 1
   662   543   547 1
   663   544   546 1
   664   544   549 1
   665   544   550 1
   666   549   559 1
   667   550   556 1
   668   550   557 1
   669   550   561 1
   670   548   554 1
   671   548   558 1
   672   548   560 1
   673   565   575 1
   674   575   754 1
   675   721   729 1
   676   721   754 1
   677   721   727 1
   678   567   575 1
   679   568   576 1
   680  1300  1344 1
   681  1335  1343 1
   682   577   654 1
   683   577   672 1
   684   577   583 1
   685   577   656 1
   686   577   658 1
   687   577   678 1
   688   591   678 1
   689   577   674 1
   690   579   676 1
   691   579   652 1
   692   579   669 1
   693   579   582 1
   694   579   659 1
   695   579   661 1
   696   593   622 1
   697   616   620 1
   698   580   662 1
   699   580   670 1
   700   580   581 1
   701   580   651 1
   702   580   660 1
   703   612   616 1
   704   612   650 1
   705   612   651 1
   706   616   621 1
   707   580   675 1
   708   582   659 1
   709   582   661 1
   710   582   649 1
   711   582   665 1
   712   582   667 1
   713   610   614 1
   714   610   654 1
   715   583   664 1
   716   583   676 1
   717   583   648 1
   718   610   648 1
   719   583   656 1
   720   583   658 1
   721   584   647 1
   722   584   655 1
   723   584   657 1
   724   584   663 1
   725   584   675 1
   726   601   675 1
   727   585   636 1
   728   586   635 1
   729   596   623 1
   730   623  1386 1
   731   587   638 1
   732   628   634 1
   733   628   638 1
   734   634   672 1
   735   588  1405 1
   736   607   646 1
   737   608   646 1
   738   589   641 1
   739   631   665 1
   740   590   640 1
   741   598   620 1
   742   592   677 1
   743   594   621 1
   744   595   624 1
   745   597   618 1
   746   723   755 1
   747   730   755 1
   748   602   676 1
   749   685   690 1
   750   702   704 1
   751   702   708 1
   752   704   710 1
   753   708   716 1
   754   705   708 1
   755   627   633 1
   756   603   644 1
   757   627   639 1
   758   639   644 1
   759   705   711 1
   760   705   713 1
   761   705   715 1
   762   639  1406 1
   763   633   667 1
   764   604   644 1
   765   613   623 1
   766   617  1392 1
   767   605   645 1
   768   613   617 1
   769   617   645 1
   770   606   645 1
   771   609   647 1
   772   609   653 1
   773   609   613 1
   774   611   652 1
   775   615   619 1
   776   611   615 1
   777   615   622 1
   778   611   649 1
   779   614   618 1
   780   614   624 1
   781   629   670 1
   782   629   689 1
   783   629   663 1
   784   630   664 1
   785   630   692 1
   786   630   669 1
   787   637   640 1
   788   679   694 1
   789   682   699 1
   790   680   696 1
   791   681   695 1
   792   683   700 1
   793   686   693 1
   794   689   693 1
   795   693   700 1
   796   726   734 1
   797   689   699 1
   798   684   698 1
   799   698  1460 1
   800  1351  1432 1
   801  1398  1432 1
   802  1398  1460 1
   803  1351  1426 1
   804  1351  1416 1
   805  1351  1424 1
   806  1398  1437 1
   807  1351  1444 1
   808   687   691 1
   809   691   695 1
   810   691   697 1
   811   688   697 1
   812   697  1464 1
   813   690   694 1
   814   690   700 1
   815   694   699 1
   816   706   714 1
   817   706   717 1
   818   706   712 1
   819   722   765 1
   820   722   731 1
   821   722   756 1
   822   756   762 1
   823   724   768 1
   824   760   768 1
   825   725   734 1
   826   734   766 1
   827   742   753 1
   828   735   738 1
   829   735   739 1
   830   736   738 1
   831   736   741 1
   832   736   742 1
   833   738   745 1
   834   739   741 1
   835   742   748 1
   836   741   751 1
   837   742   749 1
   838   739   747 1
   839   735   737 1
   840   740   752 1
   841   740   750 1
   842   740   746 1
   843   737   740 1
   844   737   743 1
   845   737   744 1
   846   755   764 1
   847   755   761 1
   848   757   767 1
   849   759   767 1
   850   965  1052 1
   851   769   775 1
   852   769   850 1
   853   965  1046 1
   854   769   846 1
   855   769   848 1
   856   769   864 1
   857   769   866 1
   858   769   870 1
   859   769   965 1
   860   870   965 1
   861   965  1050 1
   862   965  1034 1
   863   965  1044 1
   864   866  1016 1
   865   770   847 1
   866   770   776 1
   867   770   865 1
   868   770   845 1
   869   770   849 1
   870   770   863 1
   871   770   869 1
   872   771   844 1
   873   771   851 1
   874   771   853 1
   875   771   861 1
   876   771   868 1
   877   794   868 1
   878   771   774 1
   879   772   854 1
   880   772   773 1
   881   772   843 1
   882   772   867 1
   883   793   867 1
   884   772   862 1
   885   772   852 1
   886   784   869 1
   887   773   854 1
   888   773   842 1
   889   773   858 1
   890   773   860 1
   891   824   858 1
   892   773   852 1
   893   774   851 1
   894   774   853 1
   895   774  1061 1
   896   774   857 1
   897   774   841 1
   898   774   859 1
   899   825   859 1
   900   825  1055 1
   901   774   962 1
   902   822   884 1
   903   775   850 1
   904   775   856 1
   905   822   856 1
   906   775   840 1
   907   775   848 1
   908   775   868 1
   909   822   861 1
   910   776   847 1
   911   821   881 1
   912   776   867 1
   913   776   855 1
   914   821   855 1
   915   821   862 1
   916   776   849 1
   917   776   839 1
   918   777   828 1
   919   827   834 1
   920   778   827 1
   921   817   827 1
   922   787   816 1
   923   779   830 1
   924   807   814 1
   925   800   838 1
   926   807   811 1
   927   811   838 1
   928   781   833 1
   929   782   832 1
   930   783   870 1
   931   785   814 1
   932   808   812 1
   933   804   842 1
   934   786   813 1
   935   804   808 1
   936   804   843 1
   937   808   813 1
   938   813  1195 1
   939   788   815 1
   940   789   810 1
   941   790   812 1
   942   812  1198 1
   943   818   824 1
   944   791  1219 1
   945   818  1218 1
   946  1176  1219 1
   947  1211  1218 1
   948  1218  1219 1
   949   792   835 1
   950   834   835 1
   951   795   836 1
   952   803   844 1
   953   803   807 1
   954   803   841 1
   955   796   836 1
   956   797   837 1
   957   801   805 1
   958   801   845 1
   959   801   839 1
   960   798   837 1
   961   799   838 1
   962   914   923 1
   963   914   948 1
   964   948   954 1
   965   914   957 1
   966   806   816 1
   967   806   810 1
   968   802   806 1
   969   802   840 1
   970   802   846 1
   971   805   809 1
   972   809   837 1
   973   805   815 1
   974   819   825 1
   975   831   836 1
   976   819   831 1
   977   820   826 1
   978   820   830 1
   979   820  1024 1
   980   826  1052 1
   981   826   864 1
   982  1019  1026 1
   983   823   857 1
   984   823  1009 1
   985   823  1057 1
   986   833  1009 1
   987  1009  1019 1
   988  1016  1050 1
   989   828  1010 1
   990  1010  1016 1
   991  1010  1410 1
   992  1410  1411 1
   993   828  1217 1
   994   927   930 1
   995   929   932 1
   996   927   929 1
   997   929   935 1
   998   929   936 1
   999   927   931 1
  1000   893   895 1
  1001   893   898 1
  1002   893   899 1
  1003   898   906 1
  1004   898   909 1
  1005   898   904 1
  1006   899   910 1
  1007   886   891 1
  1008   871   886 1
  1009   873   887 1
  1010   879   883 1
  1011   883   887 1
  1012   887  1274 1
  1013   883   889 1
  1014   931   933 1
  1015   881   885 1
  1016   931   939 1
  1017   874   891 1
  1018   881   891 1
  1019   875   892 1
  1020   877   882 1
  1021   882   892 1
  1022   882   886 1
  1023   876   890 1
  1024   885   892 1
  1025   878   885 1
  1026   880   889 1
  1027   894   896 1
  1028   894  1091 1
  1029   896   902 1
  1030   896  1087 1
  1031  1085  1087 1
  1032  1085  1091 1
  1033  1085  1090 1
  1034  1091  1102 1
  1035   894   900 1
  1036   900   908 1
  1037   897   900 1
  1038   897   903 1
  1039   897   905 1
  1040   897   907 1
  1041   900  1103 1
  1042   901  1087 1
  1043  1147  1501 1
  1044  1296  1501 1
  1045   912  1117 1
  1046   913   946 1
  1047   913   919 1
  1048   913   921 1
  1049   917   926 1
  1050   926   958 1
  1051   926  1332 1
  1052   918   926 1
  1053   930   937 1
  1054   922   947 1
  1055  1332  1338 1
  1056   924  1298 1
  1057  1298  1307 1
  1058  1298  1332 1
  1059  1298  1341 1
  1060   928   930 1
  1061   928   933 1
  1062   928   934 1
  1063   933   943 1
  1064   934   940 1
  1065   934   941 1
  1066   934   945 1
  1067   932   938 1
  1068   932   942 1
  1069   932   944 1
  1070   949   959 1
  1071   959  1138 1
  1072  1105  1113 1
  1073  1105  1138 1
  1074  1105  1111 1
  1075   951   959 1
  1076   952   960 1
  1077  1316  1326 1
  1078  1316  1328 1
  1079  1316  1322 1
  1080   955  1309 1
  1081   961  1056 1
  1082   967  1048 1
  1083   967  1060 1
  1084   967  1032 1
  1085   961   967 1
  1086   961  1038 1
  1087   961  1040 1
  1088   961  1042 1
  1089   961  1062 1
  1090   967  1040 1
  1091   967  1042 1
  1092   975  1062 1
  1093   961  1058 1
  1094   962  1061 1
  1095   962   968 1
  1096   962  1039 1
  1097   962  1041 1
  1098   993  1031 1
  1099   962  1057 1
  1100   993   997 1
  1101   962  1055 1
  1102   962  1037 1
  1103   993  1037 1
  1104   963  1060 1
  1105   963  1036 1
  1106   963  1053 1
  1107   963   966 1
  1108   963  1043 1
  1109   963  1045 1
  1110   966  1043 1
  1111   966  1045 1
  1112   966  1049 1
  1113   966  1033 1
  1114   966  1051 1
  1115   964  1046 1
  1116   964  1054 1
  1117   964   965 1
  1118   964  1035 1
  1119   964  1044 1
  1120   964  1059 1
  1121   968  1031 1
  1122   968  1039 1
  1123   968  1041 1
  1124   968  1047 1
  1125   968  1059 1
  1126   985  1059 1
  1127   969  1020 1
  1128  1020  1409 1
  1129   970  1019 1
  1130   980  1007 1
  1131   971  1022 1
  1132  1012  1018 1
  1133  1012  1022 1
  1134  1018  1056 1
  1135   973  1025 1
  1136   991  1030 1
  1137   992  1030 1
  1138   974  1024 1
  1139   982  1004 1
  1140  1004  1390 1
  1141   976  1061 1
  1142   995  1036 1
  1143   999  1003 1
  1144   977  1006 1
  1145   995   999 1
  1146   999  1006 1
  1147   995  1033 1
  1148  1000  1004 1
  1149  1005  1387 1
  1150   978  1005 1
  1151  1000  1005 1
  1152  1116  1490 1
  1153   981  1002 1
  1154   994   998 1
  1155   994  1032 1
  1156   994  1038 1
  1157   983  1411 1
  1158  1368  1411 1
  1159   984  1027 1
  1160   986  1060 1
  1161  1069  1074 1
  1162  1086  1088 1
  1163  1086  1092 1
  1164  1088  1094 1
  1165  1092  1100 1
  1166   987  1028 1
  1167   988  1028 1
  1168  1011  1017 1
  1169  1011  1023 1
  1170   989  1029 1
  1171   990  1029 1
  1172   996  1034 1
  1173   996  1035 1
  1174   996  1000 1
  1175   997  1007 1
  1176   997  1001 1
  1177  1001  1029 1
  1178   998  1002 1
  1179   998  1008 1
  1180  1003  1030 1
  1181  1067  1084 1
  1182  1077  1084 1
  1183  1013  1054 1
  1184  1013  1073 1
  1185  1070  1077 1
  1186  1073  1077 1
  1187  1110  1118 1
  1188  1073  1083 1
  1189  1013  1047 1
  1190  1015  1049 1
  1191  1017  1051 1
  1192  1089  1092 1
  1193  1023  1028 1
  1194  1089  1095 1
  1195  1089  1097 1
  1196  1089  1099 1
  1197  1026  1027 1
  1198  1063  1078 1
  1199  1066  1083 1
  1200  1064  1080 1
  1201  1065  1079 1
  1202  1079  1466 1
  1203  1068  1082 1
  1204  1071  1075 1
  1205  1090  1098 1
  1206  1090  1101 1
  1207  1075  1079 1
  1208  1090  1096 1
  1209  1075  1081 1
  1210  1072  1081 1
  1211  1074  1078 1
  1212  1074  1084 1
  1213  1078  1083 1
  1214  1109  1118 1
  1215  1118  1524 1
  1216  1118  1150 1
  1217  1106  1115 1
  1218  1106  1140 1
  1219  1140  1146 1
  1220  1106  1149 1
  1221  1107  1139 1
  1222  1114  1139 1
  1223  1108  1152 1
  1224  1144  1152 1
  1225  1152  1526 1
  1226  1152  1489 1
  1227  1126  1137 1
  1228  1119  1122 1
  1229  1119  1123 1
  1230  1120  1122 1
  1231  1120  1125 1
  1232  1120  1126 1
  1233  1122  1129 1
  1234  1123  1125 1
  1235  1125  1135 1
  1236  1126  1132 1
  1237  1126  1133 1
  1238  1123  1131 1
  1239  1119  1121 1
  1240  1121  1124 1
  1241  1121  1127 1
  1242  1121  1128 1
  1243  1124  1130 1
  1244  1124  1136 1
  1245  1124  1134 1
  1246  1139  1145 1
  1247  1139  1148 1
  1248  1143  1151 1
  1249  1153  1234 1
  1250  1349  1430 1
  1251  1153  1230 1
  1252  1153  1248 1
  1253  1153  1250 1
  1254  1153  1254 1
  1255  1153  1349 1
  1256  1210  1248 1
  1257  1210  1436 1
  1258  1250  1400 1
  1259  1254  1349 1
  1260  1349  1434 1
  1261  1349  1436 1
  1262  1400  1434 1
  1263  1349  1418 1
  1264  1153  1159 1
  1265  1153  1232 1
  1266  1349  1428 1
  1267  1154  1229 1
  1268  1154  1231 1
  1269  1154  1249 1
  1270  1154  1233 1
  1271  1154  1253 1
  1272  1168  1253 1
  1273  1154  1160 1
  1274  1154  1247 1
  1275  1159  1234 1
  1276  1159  1224 1
  1277  1206  1268 1
  1278  1155  1235 1
  1279  1155  1245 1
  1280  1155  1252 1
  1281  1159  1240 1
  1282  1159  1252 1
  1283  1178  1252 1
  1284  1206  1240 1
  1285  1206  1245 1
  1286  1159  1232 1
  1287  1155  1228 1
  1288  1155  1237 1
  1289  1155  1158 1
  1290  1156  1238 1
  1291  1156  1157 1
  1292  1156  1227 1
  1293  1156  1251 1
  1294  1177  1251 1
  1295  1156  1246 1
  1296  1156  1236 1
  1297  1157  1238 1
  1298  1157  1226 1
  1299  1157  1244 1
  1300  1157  1236 1
  1301  1157  1242 1
  1302  1158  1235 1
  1303  1158  1241 1
  1304  1158  1225 1
  1305  1158  1237 1
  1306  1158  1243 1
  1307  1158  1445 1
  1308  1209  1243 1
  1309  1209  1439 1
  1310  1158  1346 1
  1311  1160  1251 1
  1312  1160  1239 1
  1313  1160  1231 1
  1314  1182  1221 1
  1315  1160  1233 1
  1316  1160  1223 1
  1317  1263  1267 1
  1318  1264  1273 1
  1319  1161  1212 1
  1320  1162  1211 1
  1321  1201  1211 1
  1322  1171  1200 1
  1323  1163  1214 1
  1324  1191  1198 1
  1325  1165  1217 1
  1326  1191  1195 1
  1327  1166  1216 1
  1328  1167  1254 1
  1329  1169  1198 1
  1330  1315  1323 1
  1331  1315  1317 1
  1332  1188  1226 1
  1333  1170  1197 1
  1334  1174  1196 1
  1335  1188  1192 1
  1336  1188  1227 1
  1337  1192  1196 1
  1338  1192  1197 1
  1339  1189  1193 1
  1340  1172  1199 1
  1341  1189  1199 1
  1342  1202  1208 1
  1343  1179  1220 1
  1344  1180  1220 1
  1345  1181  1221 1
  1346  1183  1222 1
  1347  1184  1222 1
  1348  1195  1222 1
  1349  1185  1229 1
  1350  1193  1221 1
  1351  1185  1223 1
  1352  1185  1189 1
  1353  1186  1190 1
  1354  1186  1224 1
  1355  1186  1230 1
  1356  1187  1191 1
  1357  1187  1225 1
  1358  1187  1228 1
  1359  1203  1209 1
  1360  1215  1220 1
  1361  1203  1215 1
  1362  1204  1214 1
  1363  1204  1408 1
  1364  1204  1210 1
  1365  1205  1265 1
  1366  1205  1239 1
  1367  1205  1246 1
  1368  1403  1410 1
  1369  1207  1241 1
  1370  1207  1393 1
  1371  1207  1441 1
  1372  1217  1393 1
  1373  1393  1403 1
  1374  1208  1242 1
  1375  1277  1279 1
  1376  1277  1282 1
  1377  1282  1290 1
  1378  1282  1288 1
  1379  1277  1283 1
  1380  1282  1293 1
  1381  1394  1400 1
  1382  1212  1394 1
  1383  1259  1276 1
  1384  1261  1266 1
  1385  1266  1276 1
  1386  1270  1275 1
  1387  1255  1270 1
  1388  1266  1270 1
  1389  1257  1271 1
  1390  1317  1327 1
  1391  1265  1269 1
  1392  1258  1275 1
  1393  1265  1275 1
  1394  1260  1274 1
  1395  1262  1269 1
  1396  1267  1271 1
  1397  1267  1273 1
  1398  1312  1318 1
  1399  1318  1324 1
  1400  1318  1325 1
  1401  1318  1329 1
  1402  1269  1276 1
  1403  1312  1314 1
  1404  1312  1317 1
  1405  1278  1280 1
  1406  1278  1475 1
  1407  1281  1287 1
  1408  1278  1284 1
  1409  1281  1284 1
  1410  1281  1289 1
  1411  1281  1291 1
  1412  1284  1292 1
  1413  1284  1487 1
  1414  1280  1286 1
  1415  1280  1471 1
  1416  1469  1471 1
  1417  1469  1475 1
  1418  1469  1474 1
  1419  1475  1486 1
  1420  1283  1294 1
  1421  1285  1471 1
  1422  1301  1310 1
  1423  1302  1310 1
  1424  1310  1342 1
  1425  1313  1316 1
  1426  1311  1315 1
  1427  1311  1313 1
  1428  1311  1314 1
  1429  1313  1320 1
  1430  1314  1321 1
  1431  1313  1319 1
  1432  1331  1337 1
  1433  1306  1331 1
  1434  1331  1340 1
  1435  1333  1343 1
  1436  1343  1522 1
  1437  1489  1497 1
  1438  1489  1522 1
  1439  1489  1495 1
  1440  1336  1344 1
  1441  1345  1351 1
  1442  1345  1426 1
  1443  1345  1422 1
  1444  1345  1424 1
  1445  1345  1440 1
  1446  1345  1442 1
  1447  1345  1446 1
  1448  1346  1423 1
  1449  1346  1352 1
  1450  1346  1441 1
  1451  1377  1381 1
  1452  1346  1439 1
  1453  1346  1445 1
  1454  1346  1421 1
  1455  1346  1425 1
  1456  1377  1415 1
  1457  1377  1421 1
  1458  1347  1420 1
  1459  1347  1437 1
  1460  1347  1427 1
  1461  1347  1429 1
  1462  1347  1444 1
  1463  1370  1444 1
  1464  1347  1350 1
  1465  1348  1430 1
  1466  1348  1349 1
  1467  1348  1419 1
  1468  1352  1423 1
  1469  1348  1438 1
  1470  1348  1443 1
  1471  1352  1431 1
  1472  1352  1443 1
  1473  1369  1443 1
  1474  1397  1431 1
  1475  1397  1438 1
  1476  1397  1457 1
  1477  1348  1428 1
  1478  1352  1415 1
  1479  1352  1425 1
  1480  1350  1427 1
  1481  1350  1429 1
  1482  1350  1433 1
  1483  1350  1417 1
  1484  1350  1435 1
  1485  1401  1435 1
  1486  1372  1412 1
  1487  1353  1404 1
  1488  1354  1403 1
  1489  1355  1406 1
  1490  1396  1402 1
  1491  1396  1406 1
  1492  1402  1440 1
  1493  1376  1414 1
  1494  1357  1409 1
  1495  1358  1408 1
  1496  1366  1388 1
  1497  1359  1446 1
  1498  1360  1445 1
  1499  1379  1420 1
  1500  1379  1383 1
  1501  1361  1390 1
  1502  1379  1417 1
  1503  1362  1389 1
  1504  1363  1392 1
  1505  1364  1391 1
  1506  1382  1392 1
  1507  1365  1386 1
  1508  1378  1382 1
  1509  1378  1416 1
  1510  1382  1386 1
  1511  1378  1422 1
  1512  1395  1401 1
  1513  1371  1412 1
  1514  1395  1407 1
  1515  1407  1412 1
  1516  1373  1413 1
  1517  1374  1413 1
  1518  1375  1414 1
  1519  1490  1499 1
  1520  1490  1524 1
  1521  1524  1530 1
  1522  1490  1533 1
  1523  1384  1388 1
  1524  1380  1384 1
  1525  1380  1418 1
  1526  1380  1419 1
  1527  1384  1389 1
  1528  1381  1385 1
  1529  1385  1413 1
  1530  1381  1391 1
  1531  1383  1387 1
  1532  1387  1414 1
  1533  1383  1390 1
  1534  1399  1433 1
  1535  1503  1506 1
  1536  1507  1509 1
  1537  1505  1508 1
  1538  1507  1515 1
  1539  1503  1505 1
  1540  1503  1507 1
  1541  1505  1511 1
  1542  1505  1512 1
  1543  1455  1459 1
  1544  1474  1482 1
  1545  1474  1485 1
  1546  1459  1463 1
  1547  1474  1480 1
  1548  1459  1465 1
  1549  1447  1462 1
  1550  1450  1467 1
  1551  1462  1467 1
  1552  1448  1464 1
  1553  1449  1463 1
  1554  1451  1468 1
  1555  1458  1468 1
  1556  1458  1462 1
  1557  1452  1466 1
  1558  1453  1458 1
  1559  1470  1472 1
  1560  1472  1478 1
  1561  1470  1476 1
  1562  1461  1468 1
  1563  1454  1461 1
  1564  1456  1465 1
  1565  1457  1461 1
  1566  1457  1467 1
  1567  1494  1502 1
  1568  1473  1476 1
  1569  1473  1479 1
  1570  1473  1481 1
  1571  1473  1483 1
  1572  1476  1484 1
  1573  1493  1502 1
  1574  1492  1536 1
  1575  1504  1506 1
  1576  1504  1509 1
  1577  1504  1510 1
  1578  1506  1513 1
  1579  1510  1517 1
  1580  1510  1521 1
  1581  1509  1519 1
  1582  1510  1516 1
  1583  1498  1523 1
  1584  1502  1534 1
  1585  1508  1514 1
  1586  1508  1520 1
  1587  1508  1518 1
  1588  1525  1535 1
  1589  1527  1535 1
  1590  1528  1536 1
