@<TRIPOS>MOLECULE
frame0012
 1536 1584 0 0 0
SMALL
NO_CHARGES

@<TRIPOS>ATOM
      1 Ti1         -2.8554     2.2298    11.2464 Ti        1 MOL       0.0000
      2 Ti2          7.9750     5.1110     1.8816 Ti        1 MOL       0.0000
      3 Ti3          1.2412    -1.7064     9.4264 Ti        1 MOL       0.0000
      4 Ti4          2.7524     7.4557     3.6534 Ti        1 MOL       0.0000
      5 Ti5          1.7539     9.1340     1.7490 Ti        1 MOL       0.0000
      6 Ti6          3.1294    -1.9608    11.3798 Ti        1 MOL       0.0000
      7 Ti7         -1.9062     0.4939     9.3549 Ti        1 MOL       0.0000
      8 Ti8          5.9872     5.4135     3.7290 Ti        1 MOL       0.0000
      9 H1          -2.3536     6.1269    11.0269 H         1 MOL       0.0000
     10 H2           8.7838     1.2049     2.2023 H         1 MOL       0.0000
     11 H3          -6.8153     1.4731    10.8640 H         1 MOL       0.0000
     12 H4          11.3572     7.1153     2.0822 H         1 MOL       0.0000
     13 H5           4.1051    -5.9953    10.9939 H         1 MOL       0.0000
     14 H6          -2.3047     8.5441     2.0711 H         1 MOL       0.0000
     15 H7          -2.3867     0.4312    12.9709 H         1 MOL       0.0000
     16 H8           6.0995     4.8683     0.1817 H         1 MOL       0.0000
     17 H9           3.6394    -2.6279     5.8687 H         1 MOL       0.0000
     18 H10          1.0290     9.2927     7.2723 H         1 MOL       0.0000
     19 H11         -5.9789     3.8825     8.9990 H         1 MOL       0.0000
     20 H12         10.7298     3.0266     4.1876 H         1 MOL       0.0000
     21 H13         -3.6778     2.4351     5.6652 H         1 MOL       0.0000
     22 H14         -1.3462    10.9619     4.1022 H         1 MOL       0.0000
     23 H15          2.1461    12.2368     2.6045 H         1 MOL       0.0000
     24 H16          8.6260    -0.8139     3.4048 H         1 MOL       0.0000
     25 H17          4.8451     7.1358     2.3148 H         1 MOL       0.0000
     26 H18          0.1606     0.1420    10.7200 H         1 MOL       0.0000
     27 H19          7.3642    -0.0259     9.7695 H         1 MOL       0.0000
     28 H20          5.8831    -0.4950    10.5168 H         1 MOL       0.0000
     29 H21          7.9383     4.4077     8.6706 H         1 MOL       0.0000
     30 H22          7.3686     4.7663     7.0520 H         1 MOL       0.0000
     31 H23          6.8754    -4.9808     9.5794 H         1 MOL       0.0000
     32 H24          5.5962    -3.8802    10.0368 H         1 MOL       0.0000
     33 C1           8.5531     4.3697     4.7451 C         1 MOL       0.0000
     34 C2          -3.8160     2.4911     8.3994 C         1 MOL       0.0000
     35 C3           3.8218    -2.7171     8.5017 C         1 MOL       0.0000
     36 C4           0.8163     9.4262     4.6128 C         1 MOL       0.0000
     37 C5           9.4491     3.7654     5.7403 C         1 MOL       0.0000
     38 C6          -4.7479     3.1162     7.4223 C         1 MOL       0.0000
     39 C7           4.7619    -3.3315     7.5545 C         1 MOL       0.0000
     40 C8          -0.0735    10.0730     5.6125 C         1 MOL       0.0000
     41 C9           9.2003     3.8403     7.1467 C         1 MOL       0.0000
     42 C10         -4.5315     2.9962     6.0343 C         1 MOL       0.0000
     43 C11          5.8914    -4.0918     8.0076 C         1 MOL       0.0000
     44 C12         -1.1682    10.8460     5.1676 C         1 MOL       0.0000
     45 C13          0.1810     9.9023     6.9674 C         1 MOL       0.0000
     46 C14          4.5142    -3.1993     6.1706 C         1 MOL       0.0000
     47 C15         10.5828     3.0664     5.2646 C         1 MOL       0.0000
     48 C16         -5.8480     3.8086     7.9210 C         1 MOL       0.0000
     49 C17          8.7648     1.2840     0.0582 C         1 MOL       0.0000
     50 C18          2.2951    13.0756     0.0832 C         1 MOL       0.0000
     51 C19          6.6143    -0.0189    13.0272 C         1 MOL       0.0000
     52 C20         -6.7440     1.5235    13.0078 C         1 MOL       0.0000
     53 C21          3.4992     5.1125     5.6180 C         1 MOL       0.0000
     54 C22         -1.2569    -1.9819     7.5361 C         1 MOL       0.0000
     55 C23          3.9940    -4.3272    13.1300 C         1 MOL       0.0000
     56 C24          2.2024    11.6421     0.0457 C         1 MOL       0.0000
     57 C25          5.3165    -0.6357    13.0740 C         1 MOL       0.0000
     58 C26         -5.3417     1.9379    13.0323 C         1 MOL       0.0000
     59 C27          8.8042     0.6149     1.2879 C         1 MOL       0.0000
     60 C28         -2.3426     6.7153    11.9408 C         1 MOL       0.0000
     61 C29         -4.0954     7.8789     1.0761 C         1 MOL       0.0000
     62 C30         -7.3768     1.2938    11.7793 C         1 MOL       0.0000
     63 C31          7.3089     0.2494    11.7938 C         1 MOL       0.0000
     64 C32         -2.8062     8.3591     1.1253 C         1 MOL       0.0000
     65 C33          4.1467    -6.5225    11.9429 C         1 MOL       0.0000
     66 C34          8.8259    -0.7862     1.3695 C         1 MOL       0.0000
     67 N1           8.8810    -1.3851     2.6076 N         1 MOL       0.0000
     68 N2           6.7299     0.0665    10.5548 N         1 MOL       0.0000
     69 N3           8.1195     4.4866     7.6780 N         1 MOL       0.0000
     70 N4           6.2224    -4.2500     9.3250 N         1 MOL       0.0000
     71 O1           7.3768     4.7748     5.1109 O         1 MOL       0.0000
     72 O2          -3.0470     1.5403     8.0011 O         1 MOL       0.0000
     73 O3           4.2032    -2.5927     9.7228 O         1 MOL       0.0000
     74 O4           0.7505     9.8559     3.4131 O         1 MOL       0.0000
     75 O5           1.5868     8.4690     4.9992 O         1 MOL       0.0000
     76 O6           2.6513    -2.3487     8.0962 O         1 MOL       0.0000
     77 O7           8.9650     4.4505     3.5334 O         1 MOL       0.0000
     78 O8          -3.8580     2.9274     9.5991 O         1 MOL       0.0000
     79 O9           6.2924     4.1956     2.5344 O         1 MOL       0.0000
     80 O10         -1.3538     2.0542    10.0994 O         1 MOL       0.0000
     81 O11          7.2312     6.4829     2.9843 O         1 MOL       0.0000
     82 O12         -3.1060     0.3295    10.5921 O         1 MOL       0.0000
     83 O13          1.5006    -2.8784    10.6868 O         1 MOL       0.0000
     84 O14          3.2690     9.0170     2.9149 O         1 MOL       0.0000
     85 O15          2.4545    -0.6169    10.2227 O         1 MOL       0.0000
     86 O16          1.5628     7.2599     2.3975 O         1 MOL       0.0000
     87 O17          4.7203     4.9326     5.2637 O         1 MOL       0.0000
     88 O18         -1.9146    -0.9469     7.9143 O         1 MOL       0.0000
     89 O19          3.8718    -3.7326    11.9889 O         1 MOL       0.0000
     90 O20          2.1193    10.9406     1.1409 O         1 MOL       0.0000
     91 O21          4.6739    -0.9445    11.9838 O         1 MOL       0.0000
     92 O22         -0.1167     9.1049     1.0808 O         1 MOL       0.0000
     93 O23         -0.0951    -2.2764     7.9939 O         1 MOL       0.0000
     94 O24          2.7573     6.0334     5.1246 O         1 MOL       0.0000
     95 O25          9.4121     6.1301     1.1270 O         1 MOL       0.0000
     96 O26         -4.7422     2.1697    11.9148 O         1 MOL       0.0000
     97 O27          8.6166     3.3758     1.1564 O         1 MOL       0.0000
     98 O28         -2.4740     3.9521    11.9961 O         1 MOL       0.0000
     99 O29          4.4842     6.5871     3.0354 O         1 MOL       0.0000
    100 O30         -0.2177    -0.4167    10.0165 O         1 MOL       0.0000
    101 O31          6.9383     5.3620     0.1026 O         1 MOL       0.0000
    102 O32         -2.2643     1.3980    13.0309 O         1 MOL       0.0000
    103 H25          3.7082     1.4742     8.5300 H         1 MOL       0.0000
    104 H26         -6.6050    10.5990     6.1357 H         1 MOL       0.0000
    105 H27          4.4554    10.2022     5.6105 H         1 MOL       0.0000
    106 H28          4.7012     3.0112     6.8127 H         1 MOL       0.0000
    107 H29          0.0452     3.7311     8.4256 H         1 MOL       0.0000
    108 H30         12.1290    -2.6605     7.0271 H         1 MOL       0.0000
    109 H31          1.3760     1.8337     9.2931 H         1 MOL       0.0000
    110 H32          1.0540     5.2880     6.7326 H         1 MOL       0.0000
    111 H33          5.7936     8.4327     4.4931 H         1 MOL       0.0000
    112 H34          8.2497     8.3334     4.7891 H         1 MOL       0.0000
    113 C35          2.9288     4.2277     6.6617 C         1 MOL       0.0000
    114 C36          1.8175     2.5113     8.5639 C         1 MOL       0.0000
    115 C37          6.2887     9.1579     5.1380 C         1 MOL       0.0000
    116 C38         -1.9200    -2.9806     6.6717 C         1 MOL       0.0000
    117 C39          1.6183     4.4440     7.1228 C         1 MOL       0.0000
    118 C40          3.1337     2.3087     8.1318 C         1 MOL       0.0000
    119 C41          5.5342    10.1660     5.7506 C         1 MOL       0.0000
    120 C42         -7.6860    10.6057     6.0167 C         1 MOL       0.0000
    121 C43          7.6756     9.1001     5.3058 C         1 MOL       0.0000
    122 C44         12.6884    -3.4742     6.5722 C         1 MOL       0.0000
    123 C45          3.6889     3.1635     7.1792 C         1 MOL       0.0000
    124 C46          1.0619     3.5799     8.0664 C         1 MOL       0.0000
    125 N5           5.1966    10.5188     1.2255 N         1 MOL       0.0000
    126 N6           2.0427     2.6646    12.9061 N         1 MOL       0.0000
    127 C47          5.0661    11.2218     0.0418 C         1 MOL       0.0000
    128 C48          1.3222     3.6332    12.2416 C         1 MOL       0.0000
    129 C49          4.3668     2.7086    11.8733 C         1 MOL       0.0000
    130 C50          4.7225    11.0345     2.5393 C         1 MOL       0.0000
    131 C51          6.2058     9.6377     1.0797 C         1 MOL       0.0000
    132 C52          3.1492     1.8887    12.3038 C         1 MOL       0.0000
    133 H35         -0.1018     5.0903    13.0771 H         1 MOL       0.0000
    134 H36          1.5330     3.9246    11.2189 H         1 MOL       0.0000
    135 H37          4.1201     3.4830    11.1369 H         1 MOL       0.0000
    136 H38          4.3948    12.0620     2.4196 H         1 MOL       0.0000
    137 H39          4.8639     3.1928    12.7214 H         1 MOL       0.0000
    138 H40          3.9001    10.4399     2.9090 H         1 MOL       0.0000
    139 H41          5.0747     2.0261    11.3819 H         1 MOL       0.0000
    140 H42          2.7285     1.3613    11.4389 H         1 MOL       0.0000
    141 H43          5.5520    10.9573     3.2489 H         1 MOL       0.0000
    142 H44          6.7236     9.1377     1.8850 H         1 MOL       0.0000
    143 H45          3.4188     1.1357    13.0490 H         1 MOL       0.0000
    144 N7           1.9877     6.6487    13.0548 N         1 MOL       0.0000
    145 C53          0.3966     0.5628     1.6903 C         1 MOL       0.0000
    146 C54          9.5114    -5.6415    10.6830 C         1 MOL       0.0000
    147 O33         13.7131    -0.2838     2.5422 O         1 MOL       0.0000
    148 O34          8.7120    11.4890     1.4390 O         1 MOL       0.0000
    149 O35          1.2759     6.0811    10.6788 O         1 MOL       0.0000
    150 O36          4.0187     6.4228     9.3114 O         1 MOL       0.0000
    151 F1           0.0966     1.9938     2.2633 F         1 MOL       0.0000
    152 F2           9.6872    -3.5771    11.9407 F         1 MOL       0.0000
    153 F3           2.0311     1.4820     0.9973 F         1 MOL       0.0000
    154 F4          -0.4064    -0.2085     3.9395 F         1 MOL       0.0000
    155 F5           8.6187    -4.6718    10.1623 F         1 MOL       0.0000
    156 F6           2.4028     7.9971     8.7030 F         1 MOL       0.0000
    157 S1           7.7906    13.1999     1.2846 S         1 MOL       0.0000
    158 S2           2.5987     6.6505    11.0531 S         1 MOL       0.0000
    159 N8           3.1807     1.5508     3.3102 N         1 MOL       0.0000
    160 N9           1.3919     2.3530     4.3474 N         1 MOL       0.0000
    161 C55          4.1582     1.1749     2.2142 C         1 MOL       0.0000
    162 C56          2.1789     2.4593     3.2499 C         1 MOL       0.0000
    163 C57          3.0097     0.8252     4.4932 C         1 MOL       0.0000
    164 C58          4.0224    -0.2185     1.5330 C         1 MOL       0.0000
    165 C59          1.9090     1.3266     5.1286 C         1 MOL       0.0000
    166 C60         -0.0244     2.8080     4.5426 C         1 MOL       0.0000
    167 H46          5.1515     1.2649     2.6608 H         1 MOL       0.0000
    168 H47          4.0511     1.9426     1.4428 H         1 MOL       0.0000
    169 H48          1.9906     3.1283     2.4076 H         1 MOL       0.0000
    170 H49          4.9603    -0.3945     0.9792 H         1 MOL       0.0000
    171 H50          3.7075     0.0589     4.7997 H         1 MOL       0.0000
    172 H51         -0.1491     3.2997     5.5137 H         1 MOL       0.0000
    173 H52         -0.3596     3.4539     3.7232 H         1 MOL       0.0000
    174 H53          3.8902    -1.0558     2.2260 H         1 MOL       0.0000
    175 H54          1.3995     1.0195     6.0282 H         1 MOL       0.0000
    176 H55          3.2012    -0.2514     0.8009 H         1 MOL       0.0000
    177 H56         -0.6368     1.9051     4.4968 H         1 MOL       0.0000
    178 N10         -0.5688     0.5401     0.8323 N         1 MOL       0.0000
    179 C61         -1.4073    -0.9054     3.7046 C         1 MOL       0.0000
    180 C62          9.3353    -6.4758    12.0955 C         1 MOL       0.0000
    181 O37          0.6849     3.1954     0.1517 O         1 MOL       0.0000
    182 O38         -5.0668    12.6996     2.5335 O         1 MOL       0.0000
    183 O39         -3.6923    -6.0550    11.8908 O         1 MOL       0.0000
    184 O40         -5.4343    13.0019     0.0051 O         1 MOL       0.0000
    185 F7          -2.3523    -0.5817     4.7078 F         1 MOL       0.0000
    186 F8           7.8386    -6.0226    12.7260 F         1 MOL       0.0000
    187 F9           6.6101    12.1263     2.0255 F         1 MOL       0.0000
    188 F10         -7.7219    12.3305     3.8401 F         1 MOL       0.0000
    189 F11         10.6797    -5.7481    10.4911 F         1 MOL       0.0000
    190 F12          3.5080     5.6961    11.5488 F         1 MOL       0.0000
    191 S3          -4.3857    -5.1524    12.7542 S         1 MOL       0.0000
    192 S4          -5.7978    13.2567     1.4176 S         1 MOL       0.0000
    193 Ti9         -7.4904    -4.8362    24.3414 Ti        1 MOL       0.0000
    194 Ti10         3.3400    -1.9550    14.9766 Ti        1 MOL       0.0000
    195 Ti11        -3.3938    -8.7724    22.5214 Ti        1 MOL       0.0000
    196 Ti12        -1.8826     0.3897    16.7484 Ti        1 MOL       0.0000
    197 Ti13        -2.8811     2.0680    14.8440 Ti        1 MOL       0.0000
    198 Ti14        -1.5056    -9.0268    24.4748 Ti        1 MOL       0.0000
    199 Ti15        -6.5412    -6.5721    22.4499 Ti        1 MOL       0.0000
    200 Ti16         1.3522    -1.6525    16.8240 Ti        1 MOL       0.0000
    201 H57         -6.9886    -0.9391    24.1219 H         1 MOL       0.0000
    202 H58          4.1488    -5.8611    15.2973 H         1 MOL       0.0000
    203 H59        -11.4503    -5.5929    23.9590 H         1 MOL       0.0000
    204 H60          6.7222     0.0493    15.1772 H         1 MOL       0.0000
    205 H61         -0.5299   -13.0613    24.0889 H         1 MOL       0.0000
    206 H62         -6.9397     1.4781    15.1661 H         1 MOL       0.0000
    207 H63         -7.0217    -6.6348    26.0659 H         1 MOL       0.0000
    208 H64          1.4645    -2.1977    13.2767 H         1 MOL       0.0000
    209 H65         -0.9956    -9.6939    18.9637 H         1 MOL       0.0000
    210 H66         -3.6060     2.2267    20.3673 H         1 MOL       0.0000
    211 H67        -10.6139    -3.1835    22.0940 H         1 MOL       0.0000
    212 H68          6.0948    -4.0393    17.2826 H         1 MOL       0.0000
    213 H69         -8.3127    -4.6309    18.7602 H         1 MOL       0.0000
    214 H70         -5.9812     3.8959    17.1972 H         1 MOL       0.0000
    215 H71         -2.4889     5.1708    15.6995 H         1 MOL       0.0000
    216 H72          3.9910    -7.8799    16.4998 H         1 MOL       0.0000
    217 H73          0.2101     0.0698    15.4098 H         1 MOL       0.0000
    218 H74         -4.4744    -6.9240    23.8150 H         1 MOL       0.0000
    219 H75          2.7292    -7.0919    22.8645 H         1 MOL       0.0000
    220 H76          1.2481    -7.5610    23.6118 H         1 MOL       0.0000
    221 H77          3.3033    -2.6583    21.7655 H         1 MOL       0.0000
    222 H78          2.7336    -2.2997    20.1470 H         1 MOL       0.0000
    223 H79          2.2404   -12.0468    22.6744 H         1 MOL       0.0000
    224 H80          0.9612   -10.9462    23.1318 H         1 MOL       0.0000
    225 C63          3.9181    -2.6963    17.8401 C         1 MOL       0.0000
    226 C64         -8.4510    -4.5749    21.4944 C         1 MOL       0.0000
    227 C65         -0.8132    -9.7831    21.5967 C         1 MOL       0.0000
    228 C66         -3.8187     2.3602    17.7078 C         1 MOL       0.0000
    229 C67          4.8141    -3.3006    18.8353 C         1 MOL       0.0000
    230 C68         -9.3829    -3.9498    20.5173 C         1 MOL       0.0000
    231 C69          0.1269   -10.3975    20.6495 C         1 MOL       0.0000
    232 C70         -4.7085     3.0070    18.7075 C         1 MOL       0.0000
    233 C71          4.5653    -3.2257    20.2417 C         1 MOL       0.0000
    234 C72         -9.1665    -4.0698    19.1293 C         1 MOL       0.0000
    235 C73          1.2564   -11.1578    21.1026 C         1 MOL       0.0000
    236 C74         -5.8032     3.7800    18.2626 C         1 MOL       0.0000
    237 C75         -4.4540     2.8362    20.0624 C         1 MOL       0.0000
    238 C76         -0.1208   -10.2653    19.2656 C         1 MOL       0.0000
    239 C77          5.9478    -3.9996    18.3596 C         1 MOL       0.0000
    240 C78        -10.4831    -3.2574    21.0160 C         1 MOL       0.0000
    241 C79          4.1298    -5.7820    13.1532 C         1 MOL       0.0000
    242 C80         -2.3399     6.0096    13.1782 C         1 MOL       0.0000
    243 C81          1.9793    -7.0849    26.1222 C         1 MOL       0.0000
    244 C82        -11.3790    -5.5425    26.1028 C         1 MOL       0.0000
    245 C83         -1.1358    -1.9535    18.7130 C         1 MOL       0.0000
    246 C84         -5.8919    -9.0479    20.6311 C         1 MOL       0.0000
    247 C85         -0.6410   -11.3932    26.2250 C         1 MOL       0.0000
    248 C86         -2.4326     4.5761    13.1407 C         1 MOL       0.0000
    249 C87          0.6815    -7.7017    26.1690 C         1 MOL       0.0000
    250 C88         -9.9767    -5.1281    26.1273 C         1 MOL       0.0000
    251 C89          4.1692    -6.4511    14.3829 C         1 MOL       0.0000
    252 C90         -6.9776    -0.3507    25.0358 C         1 MOL       0.0000
    253 C91         -8.7304     0.8129    14.1711 C         1 MOL       0.0000
    254 C92        -12.0118    -5.7722    24.8743 C         1 MOL       0.0000
    255 C93          2.6739    -6.8166    24.8888 C         1 MOL       0.0000
    256 C94         -7.4412     1.2931    14.2203 C         1 MOL       0.0000
    257 C95         -0.4883   -13.5885    25.0379 C         1 MOL       0.0000
    258 C96          4.1909    -7.8522    14.4645 C         1 MOL       0.0000
    259 N11          4.2460    -8.4511    15.7026 N         1 MOL       0.0000
    260 N12          2.0949    -6.9995    23.6498 N         1 MOL       0.0000
    261 N13          3.4845    -2.5794    20.7730 N         1 MOL       0.0000
    262 N14          1.5874   -11.3160    22.4200 N         1 MOL       0.0000
    263 O41          2.7418    -2.2912    18.2059 O         1 MOL       0.0000
    264 O42         -7.6820    -5.5257    21.0961 O         1 MOL       0.0000
    265 O43         -0.4318    -9.6587    22.8178 O         1 MOL       0.0000
    266 O44         -3.8845     2.7899    16.5082 O         1 MOL       0.0000
    267 O45         -3.0482     1.4030    18.0942 O         1 MOL       0.0000
    268 O46         -1.9837    -9.4147    21.1912 O         1 MOL       0.0000
    269 O47          4.3300    -2.6155    16.6284 O         1 MOL       0.0000
    270 O48         -8.4930    -4.1386    22.6941 O         1 MOL       0.0000
    271 O49          1.6574    -2.8704    15.6294 O         1 MOL       0.0000
    272 O50         -5.9888    -5.0118    23.1944 O         1 MOL       0.0000
    273 O51          2.5962    -0.5831    16.0793 O         1 MOL       0.0000
    274 O52         -7.7410    -6.7365    23.6871 O         1 MOL       0.0000
    275 O53         -3.1344    -9.9444    23.7818 O         1 MOL       0.0000
    276 O54         -1.3660     1.9510    16.0099 O         1 MOL       0.0000
    277 O55         -2.1805    -7.6829    23.3177 O         1 MOL       0.0000
    278 O56         -3.0722     0.1939    15.4925 O         1 MOL       0.0000
    279 O57          0.0853    -2.1334    18.3587 O         1 MOL       0.0000
    280 O58         -6.5496    -8.0129    21.0093 O         1 MOL       0.0000
    281 O59         -0.7632   -10.7986    25.0839 O         1 MOL       0.0000
    282 O60         -2.5157     3.8746    14.2359 O         1 MOL       0.0000
    283 O61          0.0389    -8.0105    25.0788 O         1 MOL       0.0000
    284 O62         -4.7517     2.0389    14.1758 O         1 MOL       0.0000
    285 O63         -4.7301    -9.3424    21.0889 O         1 MOL       0.0000
    286 O64         -1.8777    -1.0326    18.2196 O         1 MOL       0.0000
    287 O65          4.7771    -0.9359    14.2220 O         1 MOL       0.0000
    288 O66         -9.3772    -4.8963    25.0098 O         1 MOL       0.0000
    289 O67          3.9816    -3.6902    14.2514 O         1 MOL       0.0000
    290 O68         -7.1090    -3.1139    25.0911 O         1 MOL       0.0000
    291 O69         -0.1508    -0.4789    16.1304 O         1 MOL       0.0000
    292 O70         -4.8527    -7.4827    23.1115 O         1 MOL       0.0000
    293 O71          2.3033    -1.7041    13.1976 O         1 MOL       0.0000
    294 O72         -6.8993    -5.6680    26.1259 O         1 MOL       0.0000
    295 H81         -0.9268    -5.5918    21.6250 H         1 MOL       0.0000
    296 H82        -11.2400     3.5330    19.2307 H         1 MOL       0.0000
    297 H83         -0.1796     3.1362    18.7055 H         1 MOL       0.0000
    298 H84          0.0662    -4.0548    19.9077 H         1 MOL       0.0000
    299 H85         -4.5898    -3.3349    21.5206 H         1 MOL       0.0000
    300 H86          7.4940    -9.7265    20.1221 H         1 MOL       0.0000
    301 H87         -3.2590    -5.2323    22.3881 H         1 MOL       0.0000
    302 H88         -3.5810    -1.7780    19.8276 H         1 MOL       0.0000
    303 H89          1.1586     1.3667    17.5881 H         1 MOL       0.0000
    304 H90          3.6147     1.2674    17.8841 H         1 MOL       0.0000
    305 C97         -1.7062    -2.8383    19.7567 C         1 MOL       0.0000
    306 C98         -2.8175    -4.5547    21.6589 C         1 MOL       0.0000
    307 C99          1.6537     2.0919    18.2330 C         1 MOL       0.0000
    308 C100        -6.5550   -10.0466    19.7667 C         1 MOL       0.0000
    309 C101        -3.0167    -2.6220    20.2178 C         1 MOL       0.0000
    310 C102        -1.5013    -4.7573    21.2268 C         1 MOL       0.0000
    311 C103         0.8992     3.1000    18.8456 C         1 MOL       0.0000
    312 C104       -12.3210     3.5397    19.1117 C         1 MOL       0.0000
    313 C105         3.0406     2.0341    18.4008 C         1 MOL       0.0000
    314 C106         8.0534   -10.5402    19.6672 C         1 MOL       0.0000
    315 C107        -0.9461    -3.9025    20.2742 C         1 MOL       0.0000
    316 C108        -3.5731    -3.4861    21.1614 C         1 MOL       0.0000
    317 N15          0.5616     3.4528    14.3205 N         1 MOL       0.0000
    318 N16         -2.5923    -4.4014    26.0011 N         1 MOL       0.0000
    319 C109         0.4311     4.1558    13.1368 C         1 MOL       0.0000
    320 C110        -3.3128    -3.4328    25.3366 C         1 MOL       0.0000
    321 C111        -0.2682    -4.3574    24.9683 C         1 MOL       0.0000
    322 C112         0.0875     3.9685    15.6343 C         1 MOL       0.0000
    323 C113         1.5708     2.5717    14.1747 C         1 MOL       0.0000
    324 C114        -1.4858    -5.1773    25.3988 C         1 MOL       0.0000
    325 H91         -4.7368    -1.9757    26.1721 H         1 MOL       0.0000
    326 H92         -3.1020    -3.1414    24.3139 H         1 MOL       0.0000
    327 H93         -0.5149    -3.5830    24.2319 H         1 MOL       0.0000
    328 H94         -0.2402     4.9960    15.5146 H         1 MOL       0.0000
    329 H95          0.2289    -3.8732    25.8164 H         1 MOL       0.0000
    330 H96         -0.7349     3.3739    16.0040 H         1 MOL       0.0000
    331 H97          0.4397    -5.0399    24.4769 H         1 MOL       0.0000
    332 H98         -1.9065    -5.7047    24.5339 H         1 MOL       0.0000
    333 H99          0.9170     3.8913    16.3439 H         1 MOL       0.0000
    334 H100         2.0886     2.0717    14.9800 H         1 MOL       0.0000
    335 H101        -1.2162    -5.9303    26.1440 H         1 MOL       0.0000
    336 N17         -2.6473    -0.4173    26.1498 N         1 MOL       0.0000
    337 C115        -4.2384    -6.5032    14.7853 C         1 MOL       0.0000
    338 C116         4.8764   -12.7075    23.7780 C         1 MOL       0.0000
    339 O73          9.0781    -7.3498    15.6372 O         1 MOL       0.0000
    340 O74          4.0770     4.4230    14.5340 O         1 MOL       0.0000
    341 O75         -3.3591    -0.9849    23.7738 O         1 MOL       0.0000
    342 O76         -0.6163    -0.6432    22.4064 O         1 MOL       0.0000
    343 F13         -4.5384    -5.0722    15.3583 F         1 MOL       0.0000
    344 F14          5.0522   -10.6431    25.0357 F         1 MOL       0.0000
    345 F15         -2.6039    -5.5840    14.0923 F         1 MOL       0.0000
    346 F16         -5.0414    -7.2745    17.0345 F         1 MOL       0.0000
    347 F17          3.9837   -11.7378    23.2573 F         1 MOL       0.0000
    348 F18         -2.2322     0.9311    21.7980 F         1 MOL       0.0000
    349 S5           3.1556     6.1339    14.3796 S         1 MOL       0.0000
    350 S6          -2.0363    -0.4155    24.1481 S         1 MOL       0.0000
    351 N18         -1.4543    -5.5152    16.4052 N         1 MOL       0.0000
    352 N19         -3.2431    -4.7130    17.4424 N         1 MOL       0.0000
    353 C117        -0.4768    -5.8911    15.3092 C         1 MOL       0.0000
    354 C118        -2.4561    -4.6067    16.3449 C         1 MOL       0.0000
    355 C119        -1.6253    -6.2408    17.5882 C         1 MOL       0.0000
    356 C120        -0.6126    -7.2845    14.6280 C         1 MOL       0.0000
    357 C121        -2.7260    -5.7394    18.2236 C         1 MOL       0.0000
    358 C122        -4.6594    -4.2580    17.6376 C         1 MOL       0.0000
    359 H102         0.5165    -5.8011    15.7558 H         1 MOL       0.0000
    360 H103        -0.5839    -5.1234    14.5378 H         1 MOL       0.0000
    361 H104        -2.6444    -3.9377    15.5026 H         1 MOL       0.0000
    362 H105         0.3253    -7.4605    14.0742 H         1 MOL       0.0000
    363 H106        -0.9275    -7.0071    17.8947 H         1 MOL       0.0000
    364 H107        -4.7841    -3.7663    18.6087 H         1 MOL       0.0000
    365 H108        -4.9946    -3.6121    16.8182 H         1 MOL       0.0000
    366 H109        -0.7448    -8.1218    15.3210 H         1 MOL       0.0000
    367 H110        -3.2355    -6.0465    19.1232 H         1 MOL       0.0000
    368 H111        -1.4338    -7.3174    13.8959 H         1 MOL       0.0000
    369 H112        -5.2718    -5.1609    17.5918 H         1 MOL       0.0000
    370 N20         -5.2038    -6.5259    13.9273 N         1 MOL       0.0000
    371 C123        -6.0423    -7.9714    16.7996 C         1 MOL       0.0000
    372 C124         4.7003   -13.5418    25.1905 C         1 MOL       0.0000
    373 O77         -3.9501    -3.8706    13.2467 O         1 MOL       0.0000
    374 O78         -9.7018     5.6336    15.6285 O         1 MOL       0.0000
    375 O79         -8.3273   -13.1210    24.9858 O         1 MOL       0.0000
    376 O80        -10.0693     5.9359    13.1001 O         1 MOL       0.0000
    377 F19         -6.9873    -7.6477    17.8028 F         1 MOL       0.0000
    378 F20          3.2036   -13.0886    25.8210 F         1 MOL       0.0000
    379 F21          1.9751     5.0603    15.1205 F         1 MOL       0.0000
    380 F22        -12.3569     5.2645    16.9351 F         1 MOL       0.0000
    381 F23          6.0447   -12.8141    23.5861 F         1 MOL       0.0000
    382 F24         -1.1270    -1.3699    24.6438 F         1 MOL       0.0000
    383 S7          -9.0207   -12.2184    25.8492 S         1 MOL       0.0000
    384 S8         -10.4328     6.1907    14.5126 S         1 MOL       0.0000
    385 Ti17        -9.3724    16.8428    11.1894 Ti        1 MOL       0.0000
    386 Ti18         1.4580    19.7240     1.8246 Ti        1 MOL       0.0000
    387 Ti19        -5.2758    12.9066     9.3694 Ti        1 MOL       0.0000
    388 Ti20        -3.7646    22.0687     3.5964 Ti        1 MOL       0.0000
    389 Ti21        -4.7631    23.7470     1.6920 Ti        1 MOL       0.0000
    390 Ti22        -3.3876    12.6522    11.3228 Ti        1 MOL       0.0000
    391 Ti23        -8.4232    15.1069     9.2979 Ti        1 MOL       0.0000
    392 Ti24        -0.5298    20.0265     3.6721 Ti        1 MOL       0.0000
    393 H113        -8.8706    20.7399    10.9699 H         1 MOL       0.0000
    394 H114         2.2668    15.8179     2.1453 H         1 MOL       0.0000
    395 H115       -13.3323    16.0861    10.8070 H         1 MOL       0.0000
    396 H116         4.8402    21.7283     2.0252 H         1 MOL       0.0000
    397 H117        -2.4119     8.6177    10.9369 H         1 MOL       0.0000
    398 H118        -8.8217    23.1571     2.0141 H         1 MOL       0.0000
    399 H119        -8.9037    15.0442    12.9139 H         1 MOL       0.0000
    400 H120        -0.4175    19.4813     0.1247 H         1 MOL       0.0000
    401 H121        -2.8776    11.9851     5.8117 H         1 MOL       0.0000
    402 H122        -5.4880    23.9057     7.2153 H         1 MOL       0.0000
    403 H123       -12.4959    18.4955     8.9420 H         1 MOL       0.0000
    404 H124         4.2128    17.6396     4.1306 H         1 MOL       0.0000
    405 H125       -10.1948    17.0481     5.6082 H         1 MOL       0.0000
    406 H126        -7.8632    25.5749     4.0452 H         1 MOL       0.0000
    407 H127        -4.3709    26.8498     2.5475 H         1 MOL       0.0000
    408 H128         2.1090    13.7991     3.3478 H         1 MOL       0.0000
    409 H129        -1.6719    21.7488     2.2578 H         1 MOL       0.0000
    410 H130        -6.3565    14.7550    10.6630 H         1 MOL       0.0000
    411 H131         0.8472    14.5871     9.7125 H         1 MOL       0.0000
    412 H132        -0.6339    14.1180    10.4598 H         1 MOL       0.0000
    413 H133         1.4213    19.0207     8.6136 H         1 MOL       0.0000
    414 H134         0.8516    19.3793     6.9950 H         1 MOL       0.0000
    415 H135         0.3584     9.6322     9.5224 H         1 MOL       0.0000
    416 H136        -0.9208    10.7328     9.9798 H         1 MOL       0.0000
    417 C125         2.0361    18.9827     4.6881 C         1 MOL       0.0000
    418 C126       -10.3330    17.1042     8.3424 C         1 MOL       0.0000
    419 C127        -2.6952    11.8959     8.4447 C         1 MOL       0.0000
    420 C128        -5.7007    24.0392     4.5557 C         1 MOL       0.0000
    421 C129         2.9321    18.3784     5.6833 C         1 MOL       0.0000
    422 C130       -11.2649    17.7292     7.3653 C         1 MOL       0.0000
    423 C131        -1.7550    11.2815     7.4975 C         1 MOL       0.0000
    424 C132        -6.5905    24.6860     5.5555 C         1 MOL       0.0000
    425 C133         2.6833    18.4533     7.0897 C         1 MOL       0.0000
    426 C134       -11.0485    17.6092     5.9773 C         1 MOL       0.0000
    427 C135        -0.6256    10.5212     7.9506 C         1 MOL       0.0000
    428 C136        -7.6852    25.4590     5.1106 C         1 MOL       0.0000
    429 C137        -6.3360    24.5152     6.9104 C         1 MOL       0.0000
    430 C138        -2.0028    11.4136     6.1136 C         1 MOL       0.0000
    431 C139         4.0658    17.6794     5.2076 C         1 MOL       0.0000
    432 C140       -12.3651    18.4216     7.8640 C         1 MOL       0.0000
    433 C141         2.2478    15.8970     0.0012 C         1 MOL       0.0000
    434 C142        -4.2219    27.6886     0.0262 C         1 MOL       0.0000
    435 C143         0.0973    14.5941    12.9702 C         1 MOL       0.0000
    436 C144       -13.2610    16.1365    12.9508 C         1 MOL       0.0000
    437 C145        -3.0178    19.7255     5.5610 C         1 MOL       0.0000
    438 C146        -7.7739    12.6311     7.4791 C         1 MOL       0.0000
    439 C147        -2.5230    10.2858    13.0730 C         1 MOL       0.0000
    440 C148        -4.3146    26.2551    -0.0113 C         1 MOL       0.0000
    441 C149        -1.2006    13.9773    13.0170 C         1 MOL       0.0000
    442 C150       -11.8587    16.5509    12.9753 C         1 MOL       0.0000
    443 C151         2.2872    15.2279     1.2309 C         1 MOL       0.0000
    444 C152        -8.8596    21.3283    11.8838 C         1 MOL       0.0000
    445 C153       -10.6124    22.4919     1.0191 C         1 MOL       0.0000
    446 C154       -13.8938    15.9068    11.7223 C         1 MOL       0.0000
    447 C155         0.7919    14.8624    11.7368 C         1 MOL       0.0000
    448 C156        -9.3232    22.9721     1.0683 C         1 MOL       0.0000
    449 C157        -2.3703     8.0905    11.8859 C         1 MOL       0.0000
    450 C158         2.3089    13.8268     1.3125 C         1 MOL       0.0000
    451 N21          2.3640    13.2279     2.5506 N         1 MOL       0.0000
    452 N22          0.2129    14.6795    10.4978 N         1 MOL       0.0000
    453 N23          1.6025    19.0996     7.6210 N         1 MOL       0.0000
    454 N24         -0.2946    10.3630     9.2680 N         1 MOL       0.0000
    455 O81          0.8598    19.3878     5.0539 O         1 MOL       0.0000
    456 O82         -9.5640    16.1533     7.9441 O         1 MOL       0.0000
    457 O83         -2.3138    12.0203     9.6658 O         1 MOL       0.0000
    458 O84         -5.7665    24.4689     3.3561 O         1 MOL       0.0000
    459 O85         -4.9302    23.0820     4.9422 O         1 MOL       0.0000
    460 O86         -3.8657    12.2643     8.0392 O         1 MOL       0.0000
    461 O87          2.4480    19.0635     3.4764 O         1 MOL       0.0000
    462 O88        -10.3750    17.5404     9.5421 O         1 MOL       0.0000
    463 O89         -0.2246    18.8086     2.4774 O         1 MOL       0.0000
    464 O90         -7.8708    16.6672    10.0424 O         1 MOL       0.0000
    465 O91          0.7142    21.0959     2.9273 O         1 MOL       0.0000
    466 O92         -9.6230    14.9425    10.5351 O         1 MOL       0.0000
    467 O93         -5.0164    11.7346    10.6298 O         1 MOL       0.0000
    468 O94         -3.2480    23.6300     2.8579 O         1 MOL       0.0000
    469 O95         -4.0625    13.9961    10.1657 O         1 MOL       0.0000
    470 O96         -4.9542    21.8729     2.3405 O         1 MOL       0.0000
    471 O97         -1.7967    19.5457     5.2067 O         1 MOL       0.0000
    472 O98         -8.4316    13.6661     7.8573 O         1 MOL       0.0000
    473 O99         -2.6452    10.8804    11.9319 O         1 MOL       0.0000
    474 O100        -4.3977    25.5536     1.0839 O         1 MOL       0.0000
    475 O101        -1.8431    13.6685    11.9268 O         1 MOL       0.0000
    476 O102        -6.6337    23.7179     1.0238 O         1 MOL       0.0000
    477 O103        -6.6121    12.3366     7.9369 O         1 MOL       0.0000
    478 O104        -3.7597    20.6464     5.0676 O         1 MOL       0.0000
    479 O105         2.8951    20.7431     1.0700 O         1 MOL       0.0000
    480 O106       -11.2592    16.7827    11.8578 O         1 MOL       0.0000
    481 O107         2.0995    17.9888     1.0994 O         1 MOL       0.0000
    482 O108        -8.9910    18.5650    11.9391 O         1 MOL       0.0000
    483 O109        -2.0328    21.2001     2.9784 O         1 MOL       0.0000
    484 O110        -6.7347    14.1963     9.9595 O         1 MOL       0.0000
    485 O111         0.4213    19.9749     0.0456 O         1 MOL       0.0000
    486 O112        -8.7813    16.0110    12.9739 O         1 MOL       0.0000
    487 H137        -2.8088    16.0872     8.4730 H         1 MOL       0.0000
    488 H138       -13.1220    25.2120     6.0787 H         1 MOL       0.0000
    489 H139        -2.0616    24.8152     5.5535 H         1 MOL       0.0000
    490 H140        -1.8158    17.6242     6.7557 H         1 MOL       0.0000
    491 H141        -6.4718    18.3441     8.3686 H         1 MOL       0.0000
    492 H142         5.6120    11.9525     6.9701 H         1 MOL       0.0000
    493 H143        -5.1410    16.4467     9.2361 H         1 MOL       0.0000
    494 H144        -5.4630    19.9010     6.6756 H         1 MOL       0.0000
    495 H145        -0.7234    23.0457     4.4361 H         1 MOL       0.0000
    496 H146         1.7327    22.9464     4.7321 H         1 MOL       0.0000
    497 C159        -3.5882    18.8407     6.6047 C         1 MOL       0.0000
    498 C160        -4.6995    17.1243     8.5069 C         1 MOL       0.0000
    499 C161        -0.2283    23.7709     5.0810 C         1 MOL       0.0000
    500 C162        -8.4370    11.6324     6.6147 C         1 MOL       0.0000
    501 C163        -4.8987    19.0570     7.0658 C         1 MOL       0.0000
    502 C164        -3.3833    16.9217     8.0748 C         1 MOL       0.0000
    503 C165        -0.9828    24.7790     5.6936 C         1 MOL       0.0000
    504 C166       -14.2030    25.2187     5.9597 C         1 MOL       0.0000
    505 C167         1.1586    23.7131     5.2488 C         1 MOL       0.0000
    506 C168         6.1714    11.1388     6.5152 C         1 MOL       0.0000
    507 C169        -2.8281    17.7765     7.1222 C         1 MOL       0.0000
    508 C170        -5.4551    18.1929     8.0094 C         1 MOL       0.0000
    509 N25         -1.3204    25.1318     1.1685 N         1 MOL       0.0000
    510 N26         -4.4743    17.2776    12.8491 N         1 MOL       0.0000
    511 C171        -1.4509    25.8348    -0.0152 C         1 MOL       0.0000
    512 C172        -5.1948    18.2462    12.1846 C         1 MOL       0.0000
    513 C173        -2.1502    17.3216    11.8163 C         1 MOL       0.0000
    514 C174        -1.7945    25.6475     2.4823 C         1 MOL       0.0000
    515 C175        -0.3112    24.2507     1.0227 C         1 MOL       0.0000
    516 C176        -3.3678    16.5017    12.2468 C         1 MOL       0.0000
    517 H147        -6.6188    19.7033    13.0201 H         1 MOL       0.0000
    518 H148        -4.9840    18.5376    11.1619 H         1 MOL       0.0000
    519 H149        -2.3969    18.0960    11.0799 H         1 MOL       0.0000
    520 H150        -2.1222    26.6750     2.3626 H         1 MOL       0.0000
    521 H151        -1.6531    17.8058    12.6644 H         1 MOL       0.0000
    522 H152        -2.6169    25.0529     2.8520 H         1 MOL       0.0000
    523 H153        -1.4423    16.6391    11.3249 H         1 MOL       0.0000
    524 H154        -3.7885    15.9743    11.3819 H         1 MOL       0.0000
    525 H155        -0.9650    25.5703     3.1919 H         1 MOL       0.0000
    526 H156         0.2066    23.7507     1.8280 H         1 MOL       0.0000
    527 H157        -3.0982    15.7487    12.9920 H         1 MOL       0.0000
    528 N27         -4.5293    21.2617    12.9978 N         1 MOL       0.0000
    529 C177        -6.1204    15.1758     1.6333 C         1 MOL       0.0000
    530 C178         2.9944     8.9715    10.6260 C         1 MOL       0.0000
    531 O113         7.1961    14.3292     2.4852 O         1 MOL       0.0000
    532 O114         2.1950    26.1020     1.3820 O         1 MOL       0.0000
    533 O115        -5.2411    20.6941    10.6218 O         1 MOL       0.0000
    534 O116        -2.4983    21.0358     9.2544 O         1 MOL       0.0000
    535 F25         -6.4204    16.6068     2.2063 F         1 MOL       0.0000
    536 F26          3.1702    11.0359    11.8837 F         1 MOL       0.0000
    537 F27         -4.4859    16.0950     0.9403 F         1 MOL       0.0000
    538 F28         -6.9234    14.4045     3.8825 F         1 MOL       0.0000
    539 F29          2.1017     9.9412    10.1053 F         1 MOL       0.0000
    540 F30         -4.1142    22.6101     8.6460 F         1 MOL       0.0000
    541 S9           1.2736    27.8129     1.2276 S         1 MOL       0.0000
    542 S10         -3.9183    21.2635    10.9961 S         1 MOL       0.0000
    543 N28         -3.3363    16.1638     3.2532 N         1 MOL       0.0000
    544 N29         -5.1251    16.9660     4.2904 N         1 MOL       0.0000
    545 C179        -2.3588    15.7879     2.1572 C         1 MOL       0.0000
    546 C180        -4.3381    17.0723     3.1929 C         1 MOL       0.0000
    547 C181        -3.5073    15.4382     4.4362 C         1 MOL       0.0000
    548 C182        -2.4946    14.3945     1.4760 C         1 MOL       0.0000
    549 C183        -4.6080    15.9396     5.0716 C         1 MOL       0.0000
    550 C184        -6.5414    17.4210     4.4856 C         1 MOL       0.0000
    551 H158        -1.3655    15.8779     2.6038 H         1 MOL       0.0000
    552 H159        -2.4659    16.5556     1.3858 H         1 MOL       0.0000
    553 H160        -4.5264    17.7413     2.3506 H         1 MOL       0.0000
    554 H161        -1.5567    14.2185     0.9222 H         1 MOL       0.0000
    555 H162        -2.8095    14.6719     4.7427 H         1 MOL       0.0000
    556 H163        -6.6661    17.9127     5.4567 H         1 MOL       0.0000
    557 H164        -6.8766    18.0669     3.6662 H         1 MOL       0.0000
    558 H165        -2.6268    13.5572     2.1690 H         1 MOL       0.0000
    559 H166        -5.1175    15.6325     5.9712 H         1 MOL       0.0000
    560 H167        -3.3158    14.3616     0.7439 H         1 MOL       0.0000
    561 H168        -7.1538    16.5181     4.4398 H         1 MOL       0.0000
    562 N30         -7.0858    15.1531     0.7753 N         1 MOL       0.0000
    563 C185        -7.9243    13.7076     3.6476 C         1 MOL       0.0000
    564 C186         2.8183     8.1372    12.0385 C         1 MOL       0.0000
    565 O117        -5.8321    17.8084     0.0947 O         1 MOL       0.0000
    566 O118       -11.5838    27.3126     2.4765 O         1 MOL       0.0000
    567 O119       -10.2093     8.5580    11.8338 O         1 MOL       0.0000
    568 O120       -11.9513    27.6149    -0.0519 O         1 MOL       0.0000
    569 F31         -8.8693    14.0313     4.6508 F         1 MOL       0.0000
    570 F32          1.3216     8.5904    12.6690 F         1 MOL       0.0000
    571 F33          0.0931    26.7393     1.9685 F         1 MOL       0.0000
    572 F34        -14.2389    26.9435     3.7831 F         1 MOL       0.0000
    573 F35          4.1627     8.8649    10.4341 F         1 MOL       0.0000
    574 F36         -3.0090    20.3091    11.4918 F         1 MOL       0.0000
    575 S11        -10.9027     9.4606    12.6972 S         1 MOL       0.0000
    576 S12        -12.3148    27.8697     1.3606 S         1 MOL       0.0000
    577 Ti25       -14.0074     9.7768    24.2844 Ti        1 MOL       0.0000
    578 Ti26        -3.1770    12.6580    14.9196 Ti        1 MOL       0.0000
    579 Ti27        -9.9108     5.8406    22.4644 Ti        1 MOL       0.0000
    580 Ti28        -8.3996    15.0027    16.6914 Ti        1 MOL       0.0000
    581 Ti29        -9.3981    16.6810    14.7870 Ti        1 MOL       0.0000
    582 Ti30        -8.0226     5.5862    24.4178 Ti        1 MOL       0.0000
    583 Ti31       -13.0582     8.0409    22.3929 Ti        1 MOL       0.0000
    584 Ti32        -5.1648    12.9605    16.7671 Ti        1 MOL       0.0000
    585 H169       -13.5056    13.6739    24.0649 H         1 MOL       0.0000
    586 H170        -2.3682     8.7519    15.2403 H         1 MOL       0.0000
    587 H171       -17.9673     9.0201    23.9020 H         1 MOL       0.0000
    588 H172         0.2052    14.6623    15.1202 H         1 MOL       0.0000
    589 H173        -7.0469     1.5517    24.0319 H         1 MOL       0.0000
    590 H174       -13.4567    16.0911    15.1091 H         1 MOL       0.0000
    591 H175       -13.5387     7.9782    26.0089 H         1 MOL       0.0000
    592 H176        -5.0525    12.4153    13.2196 H         1 MOL       0.0000
    593 H177        -7.5126     4.9191    18.9067 H         1 MOL       0.0000
    594 H178       -10.1230    16.8397    20.3103 H         1 MOL       0.0000
    595 H179       -17.1309    11.4295    22.0370 H         1 MOL       0.0000
    596 H180        -0.4222    10.5736    17.2256 H         1 MOL       0.0000
    597 H181       -14.8298     9.9821    18.7032 H         1 MOL       0.0000
    598 H182       -12.4982    18.5089    17.1402 H         1 MOL       0.0000
    599 H183        -9.0059    19.7838    15.6425 H         1 MOL       0.0000
    600 H184        -2.5260     6.7331    16.4428 H         1 MOL       0.0000
    601 H185        -6.3069    14.6828    15.3528 H         1 MOL       0.0000
    602 H186       -10.9915     7.6890    23.7580 H         1 MOL       0.0000
    603 H187        -3.7878     7.5211    22.8075 H         1 MOL       0.0000
    604 H188        -5.2689     7.0520    23.5548 H         1 MOL       0.0000
    605 H189        -3.2137    11.9547    21.7085 H         1 MOL       0.0000
    606 H190        -3.7834    12.3133    20.0900 H         1 MOL       0.0000
    607 H191        -4.2766     2.5662    22.6174 H         1 MOL       0.0000
    608 H192        -5.5558     3.6668    23.0748 H         1 MOL       0.0000
    609 C187        -2.5989    11.9167    17.7831 C         1 MOL       0.0000
    610 C188       -14.9680    10.0381    21.4374 C         1 MOL       0.0000
    611 C189        -7.3302     4.8299    21.5397 C         1 MOL       0.0000
    612 C190       -10.3357    16.9732    17.6507 C         1 MOL       0.0000
    613 C191        -1.7029    11.3124    18.7783 C         1 MOL       0.0000
    614 C192       -15.8999    10.6632    20.4603 C         1 MOL       0.0000
    615 C193        -6.3900     4.2155    20.5925 C         1 MOL       0.0000
    616 C194       -11.2255    17.6200    18.6505 C         1 MOL       0.0000
    617 C195        -1.9517    11.3873    20.1847 C         1 MOL       0.0000
    618 C196       -15.6835    10.5432    19.0723 C         1 MOL       0.0000
    619 C197        -5.2606     3.4552    21.0456 C         1 MOL       0.0000
    620 C198       -12.3202    18.3930    18.2056 C         1 MOL       0.0000
    621 C199       -10.9710    17.4492    20.0054 C         1 MOL       0.0000
    622 C200        -6.6378     4.3476    19.2086 C         1 MOL       0.0000
    623 C201        -0.5692    10.6134    18.3026 C         1 MOL       0.0000
    624 C202       -17.0001    11.3556    20.9590 C         1 MOL       0.0000
    625 C203        -2.3872     8.8310    13.0962 C         1 MOL       0.0000
    626 C204        -8.8569    20.6226    13.1212 C         1 MOL       0.0000
    627 C205        -4.5377     7.5281    26.0652 C         1 MOL       0.0000
    628 C206       -17.8960     9.0705    26.0458 C         1 MOL       0.0000
    629 C207        -7.6528    12.6595    18.6560 C         1 MOL       0.0000
    630 C208       -12.4089     5.5651    20.5741 C         1 MOL       0.0000
    631 C209        -7.1580     3.2199    26.1680 C         1 MOL       0.0000
    632 C210        -8.9496    19.1891    13.0837 C         1 MOL       0.0000
    633 C211        -5.8355     6.9113    26.1120 C         1 MOL       0.0000
    634 C212       -16.4937     9.4849    26.0703 C         1 MOL       0.0000
    635 C213        -2.3478     8.1619    14.3259 C         1 MOL       0.0000
    636 C214       -13.4946    14.2623    24.9788 C         1 MOL       0.0000
    637 C215       -15.2474    15.4259    14.1141 C         1 MOL       0.0000
    638 C216       -18.5288     8.8408    24.8173 C         1 MOL       0.0000
    639 C217        -3.8431     7.7964    24.8318 C         1 MOL       0.0000
    640 C218       -13.9582    15.9061    14.1633 C         1 MOL       0.0000
    641 C219        -7.0053     1.0245    24.9809 C         1 MOL       0.0000
    642 C220        -2.3261     6.7608    14.4075 C         1 MOL       0.0000
    643 N31         -2.2710     6.1619    15.6456 N         1 MOL       0.0000
    644 N32         -4.4221     7.6135    23.5928 N         1 MOL       0.0000
    645 N33         -3.0325    12.0336    20.7160 N         1 MOL       0.0000
    646 N34         -4.9296     3.2970    22.3630 N         1 MOL       0.0000
    647 O121        -3.7752    12.3218    18.1489 O         1 MOL       0.0000
    648 O122       -14.1990     9.0873    21.0391 O         1 MOL       0.0000
    649 O123        -6.9488     4.9543    22.7608 O         1 MOL       0.0000
    650 O124       -10.4015    17.4029    16.4512 O         1 MOL       0.0000
    651 O125        -9.5652    16.0160    18.0372 O         1 MOL       0.0000
    652 O126        -8.5007     5.1983    21.1342 O         1 MOL       0.0000
    653 O127        -2.1870    11.9975    16.5714 O         1 MOL       0.0000
    654 O128       -15.0100    10.4744    22.6371 O         1 MOL       0.0000
    655 O129        -4.8596    11.7426    15.5724 O         1 MOL       0.0000
    656 O130       -12.5058     9.6012    23.1374 O         1 MOL       0.0000
    657 O131        -3.9208    14.0299    16.0223 O         1 MOL       0.0000
    658 O132       -14.2580     7.8765    23.6301 O         1 MOL       0.0000
    659 O133        -9.6515     4.6686    23.7248 O         1 MOL       0.0000
    660 O134        -7.8830    16.5640    15.9529 O         1 MOL       0.0000
    661 O135        -8.6975     6.9301    23.2607 O         1 MOL       0.0000
    662 O136        -9.5892    14.8069    15.4355 O         1 MOL       0.0000
    663 O137        -6.4317    12.4797    18.3017 O         1 MOL       0.0000
    664 O138       -13.0666     6.6001    20.9523 O         1 MOL       0.0000
    665 O139        -7.2802     3.8144    25.0269 O         1 MOL       0.0000
    666 O140        -9.0327    18.4876    14.1789 O         1 MOL       0.0000
    667 O141        -6.4781     6.6025    25.0218 O         1 MOL       0.0000
    668 O142       -11.2687    16.6519    14.1188 O         1 MOL       0.0000
    669 O143       -11.2471     5.2706    21.0319 O         1 MOL       0.0000
    670 O144        -8.3947    13.5804    18.1626 O         1 MOL       0.0000
    671 O145        -1.7399    13.6771    14.1650 O         1 MOL       0.0000
    672 O146       -15.8942     9.7167    24.9528 O         1 MOL       0.0000
    673 O147        -2.5355    10.9228    14.1944 O         1 MOL       0.0000
    674 O148       -13.6260    11.4990    25.0341 O         1 MOL       0.0000
    675 O149        -6.6678    14.1341    16.0734 O         1 MOL       0.0000
    676 O150       -11.3697     7.1303    23.0545 O         1 MOL       0.0000
    677 O151        -4.2137    12.9089    13.1406 O         1 MOL       0.0000
    678 O152       -13.4163     8.9450    26.0689 O         1 MOL       0.0000
    679 H193        -7.4438     9.0212    21.5680 H         1 MOL       0.0000
    680 H194       -17.7570    18.1460    19.1737 H         1 MOL       0.0000
    681 H195        -6.6966    17.7492    18.6485 H         1 MOL       0.0000
    682 H196        -6.4508    10.5582    19.8507 H         1 MOL       0.0000
    683 H197       -11.1068    11.2781    21.4636 H         1 MOL       0.0000
    684 H198         0.9770     4.8865    20.0651 H         1 MOL       0.0000
    685 H199        -9.7760     9.3807    22.3311 H         1 MOL       0.0000
    686 H200       -10.0980    12.8350    19.7706 H         1 MOL       0.0000
    687 H201        -5.3584    15.9797    17.5311 H         1 MOL       0.0000
    688 H202        -2.9023    15.8804    17.8271 H         1 MOL       0.0000
    689 C221        -8.2232    11.7747    19.6997 C         1 MOL       0.0000
    690 C222        -9.3345    10.0583    21.6019 C         1 MOL       0.0000
    691 C223        -4.8633    16.7049    18.1760 C         1 MOL       0.0000
    692 C224       -13.0720     4.5664    19.7097 C         1 MOL       0.0000
    693 C225        -9.5337    11.9910    20.1608 C         1 MOL       0.0000
    694 C226        -8.0183     9.8557    21.1698 C         1 MOL       0.0000
    695 C227        -5.6178    17.7130    18.7886 C         1 MOL       0.0000
    696 C228       -18.8380    18.1527    19.0547 C         1 MOL       0.0000
    697 C229        -3.4764    16.6471    18.3438 C         1 MOL       0.0000
    698 C230         1.5364     4.0728    19.6102 C         1 MOL       0.0000
    699 C231        -7.4631    10.7105    20.2172 C         1 MOL       0.0000
    700 C232       -10.0901    11.1269    21.1044 C         1 MOL       0.0000
    701 N35         -5.9554    18.0658    14.2635 N         1 MOL       0.0000
    702 N36         -9.1093    10.2116    25.9441 N         1 MOL       0.0000
    703 C233        -6.0859    18.7688    13.0798 C         1 MOL       0.0000
    704 C234        -9.8298    11.1802    25.2796 C         1 MOL       0.0000
    705 C235        -6.7852    10.2556    24.9113 C         1 MOL       0.0000
    706 C236        -6.4295    18.5815    15.5773 C         1 MOL       0.0000
    707 C237        -4.9462    17.1847    14.1177 C         1 MOL       0.0000
    708 C238        -8.0028     9.4357    25.3418 C         1 MOL       0.0000
    709 H203       -11.2538    12.6373    26.1151 H         1 MOL       0.0000
    710 H204        -9.6190    11.4716    24.2569 H         1 MOL       0.0000
    711 H205        -7.0319    11.0300    24.1749 H         1 MOL       0.0000
    712 H206        -6.7572    19.6090    15.4576 H         1 MOL       0.0000
    713 H207        -6.2881    10.7398    25.7594 H         1 MOL       0.0000
    714 H208        -7.2519    17.9869    15.9470 H         1 MOL       0.0000
    715 H209        -6.0773     9.5731    24.4199 H         1 MOL       0.0000
    716 H210        -8.4235     8.9083    24.4769 H         1 MOL       0.0000
    717 H211        -5.6000    18.5043    16.2869 H         1 MOL       0.0000
    718 H212        -4.4284    16.6847    14.9230 H         1 MOL       0.0000
    719 H213        -7.7332     8.6827    26.0870 H         1 MOL       0.0000
    720 N37         -9.1643    14.1957    26.0928 N         1 MOL       0.0000
    721 C239       -10.7554     8.1098    14.7283 C         1 MOL       0.0000
    722 C240        -1.6406     1.9055    23.7210 C         1 MOL       0.0000
    723 O153         2.5611     7.2632    15.5802 O         1 MOL       0.0000
    724 O154        -2.4400    19.0360    14.4770 O         1 MOL       0.0000
    725 O155        -9.8761    13.6281    23.7168 O         1 MOL       0.0000
    726 O156        -7.1333    13.9698    22.3494 O         1 MOL       0.0000
    727 F37        -11.0554     9.5408    15.3013 F         1 MOL       0.0000
    728 F38         -1.4648     3.9699    24.9787 F         1 MOL       0.0000
    729 F39         -9.1209     9.0290    14.0353 F         1 MOL       0.0000
    730 F40        -11.5584     7.3385    16.9775 F         1 MOL       0.0000
    731 F41         -2.5333     2.8752    23.2003 F         1 MOL       0.0000
    732 F42         -8.7492    15.5441    21.7410 F         1 MOL       0.0000
    733 S13         -3.3614    20.7469    14.3226 S         1 MOL       0.0000
    734 S14         -8.5533    14.1975    24.0911 S         1 MOL       0.0000
    735 N38         -7.9713     9.0978    16.3482 N         1 MOL       0.0000
    736 N39         -9.7601     9.9000    17.3854 N         1 MOL       0.0000
    737 C241        -6.9938     8.7219    15.2522 C         1 MOL       0.0000
    738 C242        -8.9731    10.0063    16.2879 C         1 MOL       0.0000
    739 C243        -8.1423     8.3722    17.5312 C         1 MOL       0.0000
    740 C244        -7.1296     7.3285    14.5710 C         1 MOL       0.0000
    741 C245        -9.2430     8.8736    18.1666 C         1 MOL       0.0000
    742 C246       -11.1764    10.3550    17.5806 C         1 MOL       0.0000
    743 H214        -6.0005     8.8119    15.6988 H         1 MOL       0.0000
    744 H215        -7.1009     9.4896    14.4808 H         1 MOL       0.0000
    745 H216        -9.1614    10.6753    15.4456 H         1 MOL       0.0000
    746 H217        -6.1917     7.1525    14.0172 H         1 MOL       0.0000
    747 H218        -7.4445     7.6059    17.8377 H         1 MOL       0.0000
    748 H219       -11.3011    10.8467    18.5517 H         1 MOL       0.0000
    749 H220       -11.5116    11.0009    16.7612 H         1 MOL       0.0000
    750 H221        -7.2618     6.4912    15.2640 H         1 MOL       0.0000
    751 H222        -9.7525     8.5665    19.0662 H         1 MOL       0.0000
    752 H223        -7.9508     7.2956    13.8389 H         1 MOL       0.0000
    753 H224       -11.7888     9.4521    17.5348 H         1 MOL       0.0000
    754 N40        -11.7208     8.0871    13.8703 N         1 MOL       0.0000
    755 C247       -12.5593     6.6416    16.7426 C         1 MOL       0.0000
    756 C248        -1.8167     1.0712    25.1335 C         1 MOL       0.0000
    757 O157       -10.4671    10.7424    13.1897 O         1 MOL       0.0000
    758 O158       -16.2188    20.2466    15.5715 O         1 MOL       0.0000
    759 O159       -14.8443     1.4920    24.9288 O         1 MOL       0.0000
    760 O160       -16.5863    20.5489    13.0431 O         1 MOL       0.0000
    761 F43        -13.5043     6.9653    17.7458 F         1 MOL       0.0000
    762 F44         -3.3134     1.5244    25.7640 F         1 MOL       0.0000
    763 F45         -4.5419    19.6733    15.0635 F         1 MOL       0.0000
    764 F46        -18.8739    19.8775    16.8781 F         1 MOL       0.0000
    765 F47         -0.4723     1.7989    23.5291 F         1 MOL       0.0000
    766 F48         -7.6440    13.2431    24.5868 F         1 MOL       0.0000
    767 S15        -15.5377     2.3946    25.7922 S         1 MOL       0.0000
    768 S16        -16.9498    20.8037    14.4556 S         1 MOL       0.0000
    769 Ti33        13.1446     1.6728    11.3364 Ti        1 MOL       0.0000
    770 Ti34        23.9750     4.5540     1.9716 Ti        1 MOL       0.0000
    771 Ti35        17.2413    -2.2634     9.5164 Ti        1 MOL       0.0000
    772 Ti36        18.7524     6.8987     3.7434 Ti        1 MOL       0.0000
    773 Ti37        17.7539     8.5770     1.8390 Ti        1 MOL       0.0000
    774 Ti38        19.1295    -2.5178    11.4698 Ti        1 MOL       0.0000
    775 Ti39        14.0938    -0.0631     9.4449 Ti        1 MOL       0.0000
    776 Ti40        21.9872     4.8565     3.8191 Ti        1 MOL       0.0000
    777 H225        13.6464     5.5698    11.1169 H         1 MOL       0.0000
    778 H226        24.7838     0.6479     2.2923 H         1 MOL       0.0000
    779 H227         9.1847     0.9161    10.9540 H         1 MOL       0.0000
    780 H228        27.3572     6.5583     2.1722 H         1 MOL       0.0000
    781 H229        20.1051    -6.5523    11.0839 H         1 MOL       0.0000
    782 H230        13.6953     7.9871     2.1610 H         1 MOL       0.0000
    783 H231        13.6133    -0.1258    13.0609 H         1 MOL       0.0000
    784 H232        22.0995     4.3113     0.2717 H         1 MOL       0.0000
    785 H233        19.6394    -3.1849     5.9587 H         1 MOL       0.0000
    786 H234        17.0290     8.7357     7.3624 H         1 MOL       0.0000
    787 H235        10.0211     3.3255     9.0890 H         1 MOL       0.0000
    788 H236        26.7298     2.4697     4.2776 H         1 MOL       0.0000
    789 H237        12.3222     1.8781     5.7552 H         1 MOL       0.0000
    790 H238        14.6538    10.4049     4.1922 H         1 MOL       0.0000
    791 H239        18.1461    11.6798     2.6945 H         1 MOL       0.0000
    792 H240        24.6260    -1.3709     3.4948 H         1 MOL       0.0000
    793 H241        20.8451     6.5788     2.4048 H         1 MOL       0.0000
    794 H242        16.1605    -0.4150    10.8100 H         1 MOL       0.0000
    795 H243        23.3642    -0.5829     9.8595 H         1 MOL       0.0000
    796 H244        21.8831    -1.0520    10.6068 H         1 MOL       0.0000
    797 H245        23.9383     3.8507     8.7606 H         1 MOL       0.0000
    798 H246        23.3686     4.2093     7.1420 H         1 MOL       0.0000
    799 H247        22.8754    -5.5378     9.6694 H         1 MOL       0.0000
    800 H248        21.5962    -4.4372    10.1268 H         1 MOL       0.0000
    801 C249        24.5531     3.8127     4.8351 C         1 MOL       0.0000
    802 C250        12.1840     1.9341     8.4894 C         1 MOL       0.0000
    803 C251        19.8218    -3.2741     8.5917 C         1 MOL       0.0000
    804 C252        16.8163     8.8692     4.7027 C         1 MOL       0.0000
    805 C253        25.4491     3.2084     5.8303 C         1 MOL       0.0000
    806 C254        11.2521     2.5592     7.5123 C         1 MOL       0.0000
    807 C255        20.7620    -3.8885     7.6445 C         1 MOL       0.0000
    808 C256        15.9265     9.5160     5.7025 C         1 MOL       0.0000
    809 C257        25.2003     3.2833     7.2367 C         1 MOL       0.0000
    810 C258        11.4685     2.4392     6.1243 C         1 MOL       0.0000
    811 C259        21.8914    -4.6488     8.0976 C         1 MOL       0.0000
    812 C260        14.8318    10.2890     5.2576 C         1 MOL       0.0000
    813 C261        16.1810     9.3453     7.0574 C         1 MOL       0.0000
    814 C262        20.5142    -3.7563     6.2606 C         1 MOL       0.0000
    815 C263        26.5828     2.5094     5.3546 C         1 MOL       0.0000
    816 C264        10.1519     3.2516     8.0110 C         1 MOL       0.0000
    817 C265        24.7648     0.7270     0.1482 C         1 MOL       0.0000
    818 C266        18.2951    12.5186     0.1732 C         1 MOL       0.0000
    819 C267        22.6143    -0.5759    13.1172 C         1 MOL       0.0000
    820 C268         9.2560     0.9665    13.0978 C         1 MOL       0.0000
    821 C269        19.4992     4.5555     5.7080 C         1 MOL       0.0000
    822 C270        14.7431    -2.5389     7.6261 C         1 MOL       0.0000
    823 C271        19.9940    -4.8842    13.2200 C         1 MOL       0.0000
    824 C272        18.2024    11.0851     0.1357 C         1 MOL       0.0000
    825 C273        21.3164    -1.1927    13.1640 C         1 MOL       0.0000
    826 C274        10.6583     1.3809    13.1223 C         1 MOL       0.0000
    827 C275        24.8042     0.0579     1.3779 C         1 MOL       0.0000
    828 C276        13.6574     6.1583    12.0308 C         1 MOL       0.0000
    829 C277        11.9046     7.3219     1.1661 C         1 MOL       0.0000
    830 C278         8.6232     0.7368    11.8693 C         1 MOL       0.0000
    831 C279        23.3089    -0.3076    11.8838 C         1 MOL       0.0000
    832 C280        13.1938     7.8021     1.2153 C         1 MOL       0.0000
    833 C281        20.1467    -7.0795    12.0329 C         1 MOL       0.0000
    834 C282        24.8259    -1.3432     1.4595 C         1 MOL       0.0000
    835 N41         24.8809    -1.9421     2.6976 N         1 MOL       0.0000
    836 N42         22.7299    -0.4905    10.6448 N         1 MOL       0.0000
    837 N43         24.1195     3.9296     7.7680 N         1 MOL       0.0000
    838 N44         22.2224    -4.8070     9.4150 N         1 MOL       0.0000
    839 O161        23.3768     4.2178     5.2009 O         1 MOL       0.0000
    840 O162        12.9530     0.9833     8.0911 O         1 MOL       0.0000
    841 O163        20.2032    -3.1497     9.8128 O         1 MOL       0.0000
    842 O164        16.7505     9.2989     3.5031 O         1 MOL       0.0000
    843 O165        17.5868     7.9120     5.0892 O         1 MOL       0.0000
    844 O166        18.6513    -2.9057     8.1862 O         1 MOL       0.0000
    845 O167        24.9650     3.8935     3.6234 O         1 MOL       0.0000
    846 O168        12.1420     2.3704     9.6891 O         1 MOL       0.0000
    847 O169        22.2924     3.6386     2.6244 O         1 MOL       0.0000
    848 O170        14.6462     1.4972    10.1894 O         1 MOL       0.0000
    849 O171        23.2312     5.9259     3.0743 O         1 MOL       0.0000
    850 O172        12.8940    -0.2275    10.6821 O         1 MOL       0.0000
    851 O173        17.5006    -3.4354    10.7768 O         1 MOL       0.0000
    852 O174        19.2690     8.4600     3.0049 O         1 MOL       0.0000
    853 O175        18.4545    -1.1739    10.3127 O         1 MOL       0.0000
    854 O176        17.5628     6.7029     2.4875 O         1 MOL       0.0000
    855 O177        20.7203     4.3756     5.3537 O         1 MOL       0.0000
    856 O178        14.0854    -1.5039     8.0043 O         1 MOL       0.0000
    857 O179        19.8718    -4.2896    12.0789 O         1 MOL       0.0000
    858 O180        18.1193    10.3836     1.2309 O         1 MOL       0.0000
    859 O181        20.6739    -1.5015    12.0738 O         1 MOL       0.0000
    860 O182        15.8833     8.5479     1.1708 O         1 MOL       0.0000
    861 O183        15.9049    -2.8334     8.0839 O         1 MOL       0.0000
    862 O184        18.7573     5.4764     5.2146 O         1 MOL       0.0000
    863 O185        25.4121     5.5731     1.2170 O         1 MOL       0.0000
    864 O186        11.2578     1.6127    12.0048 O         1 MOL       0.0000
    865 O187        24.6166     2.8188     1.2464 O         1 MOL       0.0000
    866 O188        13.5260     3.3950    12.0861 O         1 MOL       0.0000
    867 O189        20.4842     6.0301     3.1254 O         1 MOL       0.0000
    868 O190        15.7823    -0.9737    10.1065 O         1 MOL       0.0000
    869 O191        22.9383     4.8049     0.1926 O         1 MOL       0.0000
    870 O192        13.7357     0.8410    13.1209 O         1 MOL       0.0000
    871 H249        19.7082     0.9172     8.6200 H         1 MOL       0.0000
    872 H250         9.3950    10.0420     6.2257 H         1 MOL       0.0000
    873 H251        20.4554     9.6452     5.7005 H         1 MOL       0.0000
    874 H252        20.7012     2.4542     6.9027 H         1 MOL       0.0000
    875 H253        16.0452     3.1741     8.5156 H         1 MOL       0.0000
    876 H254        28.1290    -3.2175     7.1171 H         1 MOL       0.0000
    877 H255        17.3760     1.2767     9.3831 H         1 MOL       0.0000
    878 H256        17.0540     4.7310     6.8226 H         1 MOL       0.0000
    879 H257        21.7936     7.8757     4.5831 H         1 MOL       0.0000
    880 H258        24.2497     7.7764     4.8791 H         1 MOL       0.0000
    881 C283        18.9288     3.6707     6.7517 C         1 MOL       0.0000
    882 C284        17.8175     1.9543     8.6539 C         1 MOL       0.0000
    883 C285        22.2887     8.6009     5.2280 C         1 MOL       0.0000
    884 C286        14.0800    -3.5376     6.7617 C         1 MOL       0.0000
    885 C287        17.6183     3.8870     7.2128 C         1 MOL       0.0000
    886 C288        19.1337     1.7517     8.2218 C         1 MOL       0.0000
    887 C289        21.5342     9.6090     5.8406 C         1 MOL       0.0000
    888 C290         8.3140    10.0487     6.1067 C         1 MOL       0.0000
    889 C291        23.6756     8.5431     5.3958 C         1 MOL       0.0000
    890 C292        28.6884    -4.0312     6.6622 C         1 MOL       0.0000
    891 C293        19.6889     2.6065     7.2692 C         1 MOL       0.0000
    892 C294        17.0619     3.0229     8.1564 C         1 MOL       0.0000
    893 N45         21.1966     9.9618     1.3155 N         1 MOL       0.0000
    894 N46         18.0427     2.1076    12.9961 N         1 MOL       0.0000
    895 C295        21.0661    10.6648     0.1318 C         1 MOL       0.0000
    896 C296        17.3222     3.0762    12.3316 C         1 MOL       0.0000
    897 C297        20.3668     2.1516    11.9633 C         1 MOL       0.0000
    898 C298        20.7225    10.4775     2.6293 C         1 MOL       0.0000
    899 C299        22.2058     9.0807     1.1697 C         1 MOL       0.0000
    900 C300        19.1492     1.3317    12.3938 C         1 MOL       0.0000
    901 H259        15.8982     4.5333    13.1671 H         1 MOL       0.0000
    902 H260        17.5330     3.3676    11.3089 H         1 MOL       0.0000
    903 H261        20.1201     2.9260    11.2269 H         1 MOL       0.0000
    904 H262        20.3948    11.5050     2.5096 H         1 MOL       0.0000
    905 H263        20.8639     2.6358    12.8114 H         1 MOL       0.0000
    906 H264        19.9001     9.8829     2.9990 H         1 MOL       0.0000
    907 H265        21.0747     1.4691    11.4719 H         1 MOL       0.0000
    908 H266        18.7285     0.8043    11.5289 H         1 MOL       0.0000
    909 H267        21.5520    10.4003     3.3389 H         1 MOL       0.0000
    910 H268        22.7236     8.5807     1.9750 H         1 MOL       0.0000
    911 H269        19.4188     0.5787    13.1390 H         1 MOL       0.0000
    912 N47         17.9877     6.0917    13.1448 N         1 MOL       0.0000
    913 C301        16.3966     0.0058     1.7803 C         1 MOL       0.0000
    914 C302        25.5114    -6.1985    10.7730 C         1 MOL       0.0000
    915 O193        29.7131    -0.8408     2.6322 O         1 MOL       0.0000
    916 O194        24.7120    10.9320     1.5290 O         1 MOL       0.0000
    917 O195        17.2759     5.5241    10.7688 O         1 MOL       0.0000
    918 O196        20.0187     5.8658     9.4014 O         1 MOL       0.0000
    919 F49         16.0966     1.4368     2.3533 F         1 MOL       0.0000
    920 F50         25.6872    -4.1341    12.0307 F         1 MOL       0.0000
    921 F51         18.0311     0.9250     1.0873 F         1 MOL       0.0000
    922 F52         15.5936    -0.7655     4.0295 F         1 MOL       0.0000
    923 F53         24.6187    -5.2288    10.2523 F         1 MOL       0.0000
    924 F54         18.4028     7.4401     8.7930 F         1 MOL       0.0000
    925 S17         23.7906    12.6429     1.3746 S         1 MOL       0.0000
    926 S18         18.5987     6.0935    11.1431 S         1 MOL       0.0000
    927 N48         19.1807     0.9938     3.4002 N         1 MOL       0.0000
    928 N49         17.3919     1.7960     4.4374 N         1 MOL       0.0000
    929 C303        20.1582     0.6179     2.3042 C         1 MOL       0.0000
    930 C304        18.1789     1.9023     3.3399 C         1 MOL       0.0000
    931 C305        19.0097     0.2682     4.5832 C         1 MOL       0.0000
    932 C306        20.0224    -0.7755     1.6230 C         1 MOL       0.0000
    933 C307        17.9090     0.7696     5.2186 C         1 MOL       0.0000
    934 C308        15.9756     2.2510     4.6326 C         1 MOL       0.0000
    935 H270        21.1515     0.7079     2.7508 H         1 MOL       0.0000
    936 H271        20.0511     1.3856     1.5328 H         1 MOL       0.0000
    937 H272        17.9906     2.5713     2.4976 H         1 MOL       0.0000
    938 H273        20.9603    -0.9515     1.0692 H         1 MOL       0.0000
    939 H274        19.7075    -0.4981     4.8897 H         1 MOL       0.0000
    940 H275        15.8509     2.7427     5.6037 H         1 MOL       0.0000
    941 H276        15.6404     2.8969     3.8132 H         1 MOL       0.0000
    942 H277        19.8902    -1.6128     2.3160 H         1 MOL       0.0000
    943 H278        17.3995     0.4625     6.1182 H         1 MOL       0.0000
    944 H279        19.2012    -0.8084     0.8909 H         1 MOL       0.0000
    945 H280        15.3632     1.3481     4.5868 H         1 MOL       0.0000
    946 N50         15.4312    -0.0169     0.9223 N         1 MOL       0.0000
    947 C309        14.5927    -1.4624     3.7946 C         1 MOL       0.0000
    948 C310        25.3353    -7.0328    12.1855 C         1 MOL       0.0000
    949 O197        16.6849     2.6384     0.2417 O         1 MOL       0.0000
    950 O198        10.9332    12.1426     2.6235 O         1 MOL       0.0000
    951 O199        12.3077    -6.6120    11.9808 O         1 MOL       0.0000
    952 O200        10.5657    12.4449     0.0951 O         1 MOL       0.0000
    953 F55         13.6477    -1.1387     4.7978 F         1 MOL       0.0000
    954 F56         23.8386    -6.5796    12.8160 F         1 MOL       0.0000
    955 F57         22.6101    11.5693     2.1155 F         1 MOL       0.0000
    956 F58          8.2781    11.7735     3.9301 F         1 MOL       0.0000
    957 F59         26.6797    -6.3051    10.5811 F         1 MOL       0.0000
    958 F60         19.5080     5.1391    11.6388 F         1 MOL       0.0000
    959 S19         11.6143    -5.7094    12.8442 S         1 MOL       0.0000
    960 S20         10.2022    12.6997     1.5076 S         1 MOL       0.0000
    961 Ti41         8.5096    -5.3932    24.4314 Ti        1 MOL       0.0000
    962 Ti42        19.3400    -2.5120    15.0666 Ti        1 MOL       0.0000
    963 Ti43        12.6063    -9.3294    22.6114 Ti        1 MOL       0.0000
    964 Ti44        14.1174    -0.1673    16.8384 Ti        1 MOL       0.0000
    965 Ti45        13.1189     1.5110    14.9340 Ti        1 MOL       0.0000
    966 Ti46        14.4945    -9.5838    24.5648 Ti        1 MOL       0.0000
    967 Ti47         9.4588    -7.1291    22.5399 Ti        1 MOL       0.0000
    968 Ti48        17.3522    -2.2095    16.9140 Ti        1 MOL       0.0000
    969 H281         9.0114    -1.4961    24.2119 H         1 MOL       0.0000
    970 H282        20.1488    -6.4181    15.3873 H         1 MOL       0.0000
    971 H283         4.5497    -6.1499    24.0490 H         1 MOL       0.0000
    972 H284        22.7222    -0.5077    15.2672 H         1 MOL       0.0000
    973 H285        15.4701   -13.6183    24.1789 H         1 MOL       0.0000
    974 H286         9.0603     0.9211    15.2561 H         1 MOL       0.0000
    975 H287         8.9783    -7.1918    26.1559 H         1 MOL       0.0000
    976 H288        17.4645    -2.7547    13.3666 H         1 MOL       0.0000
    977 H289        15.0044   -10.2509    19.0537 H         1 MOL       0.0000
    978 H290        12.3940     1.6697    20.4573 H         1 MOL       0.0000
    979 H291         5.3861    -3.7405    22.1840 H         1 MOL       0.0000
    980 H292        22.0948    -4.5963    17.3726 H         1 MOL       0.0000
    981 H293         7.6872    -5.1879    18.8502 H         1 MOL       0.0000
    982 H294        10.0188     3.3389    17.2872 H         1 MOL       0.0000
    983 H295        13.5111     4.6138    15.7895 H         1 MOL       0.0000
    984 H296        19.9910    -8.4369    16.5898 H         1 MOL       0.0000
    985 H297        16.2101    -0.4872    15.4998 H         1 MOL       0.0000
    986 H298        11.5255    -7.4810    23.9050 H         1 MOL       0.0000
    987 H299        18.7292    -7.6489    22.9545 H         1 MOL       0.0000
    988 H300        17.2481    -8.1180    23.7018 H         1 MOL       0.0000
    989 H301        19.3033    -3.2153    21.8555 H         1 MOL       0.0000
    990 H302        18.7336    -2.8567    20.2370 H         1 MOL       0.0000
    991 H303        18.2404   -12.6038    22.7644 H         1 MOL       0.0000
    992 H304        16.9612   -11.5032    23.2218 H         1 MOL       0.0000
    993 C311        19.9181    -3.2533    17.9301 C         1 MOL       0.0000
    994 C312         7.5490    -5.1319    21.5844 C         1 MOL       0.0000
    995 C313        15.1867   -10.3401    21.6867 C         1 MOL       0.0000
    996 C314        12.1813     1.8032    17.7978 C         1 MOL       0.0000
    997 C315        20.8141    -3.8576    18.9253 C         1 MOL       0.0000
    998 C316         6.6171    -4.5068    20.6073 C         1 MOL       0.0000
    999 C317        16.1270   -10.9545    20.7395 C         1 MOL       0.0000
   1000 C318        11.2915     2.4500    18.7975 C         1 MOL       0.0000
   1001 C319        20.5653    -3.7827    20.3317 C         1 MOL       0.0000
   1002 C320         6.8335    -4.6268    19.2193 C         1 MOL       0.0000
   1003 C321        17.2564   -11.7148    21.1926 C         1 MOL       0.0000
   1004 C322        10.1968     3.2230    18.3526 C         1 MOL       0.0000
   1005 C323        11.5460     2.2792    20.1524 C         1 MOL       0.0000
   1006 C324        15.8792   -10.8223    19.3556 C         1 MOL       0.0000
   1007 C325        21.9478    -4.5566    18.4496 C         1 MOL       0.0000
   1008 C326         5.5170    -3.8144    21.1060 C         1 MOL       0.0000
   1009 C327        20.1298    -6.3390    13.2432 C         1 MOL       0.0000
   1010 C328        13.6601     5.4526    13.2682 C         1 MOL       0.0000
   1011 C329        17.9793    -7.6419    26.2122 C         1 MOL       0.0000
   1012 C330         4.6210    -6.0995    26.1928 C         1 MOL       0.0000
   1013 C331        14.8642    -2.5105    18.8030 C         1 MOL       0.0000
   1014 C332        10.1081    -9.6049    20.7211 C         1 MOL       0.0000
   1015 C333        15.3590   -11.9502    26.3150 C         1 MOL       0.0000
   1016 C334        13.5674     4.0191    13.2307 C         1 MOL       0.0000
   1017 C335        16.6814    -8.2587    26.2590 C         1 MOL       0.0000
   1018 C336         6.0233    -5.6851    26.2173 C         1 MOL       0.0000
   1019 C337        20.1692    -7.0081    14.4729 C         1 MOL       0.0000
   1020 C338         9.0224    -0.9077    25.1258 C         1 MOL       0.0000
   1021 C339         7.2696     0.2559    14.2611 C         1 MOL       0.0000
   1022 C340         3.9882    -6.3292    24.9643 C         1 MOL       0.0000
   1023 C341        18.6739    -7.3736    24.9788 C         1 MOL       0.0000
   1024 C342         8.5588     0.7361    14.3103 C         1 MOL       0.0000
   1025 C343        15.5117   -14.1455    25.1279 C         1 MOL       0.0000
   1026 C344        20.1909    -8.4092    14.5545 C         1 MOL       0.0000
   1027 N51         20.2459    -9.0081    15.7926 N         1 MOL       0.0000
   1028 N52         18.0949    -7.5564    23.7398 N         1 MOL       0.0000
   1029 N53         19.4844    -3.1364    20.8630 N         1 MOL       0.0000
   1030 N54         17.5874   -11.8730    22.5100 N         1 MOL       0.0000
   1031 O201        18.7418    -2.8482    18.2959 O         1 MOL       0.0000
   1032 O202         8.3180    -6.0827    21.1861 O         1 MOL       0.0000
   1033 O203        15.5682   -10.2157    22.9078 O         1 MOL       0.0000
   1034 O204        12.1155     2.2329    16.5982 O         1 MOL       0.0000
   1035 O205        12.9518     0.8460    18.1842 O         1 MOL       0.0000
   1036 O206        14.0163    -9.9717    21.2812 O         1 MOL       0.0000
   1037 O207        20.3300    -3.1725    16.7184 O         1 MOL       0.0000
   1038 O208         7.5070    -4.6956    22.7841 O         1 MOL       0.0000
   1039 O209        17.6574    -3.4274    15.7194 O         1 MOL       0.0000
   1040 O210        10.0112    -5.5688    23.2844 O         1 MOL       0.0000
   1041 O211        18.5962    -1.1401    16.1693 O         1 MOL       0.0000
   1042 O212         8.2590    -7.2935    23.7771 O         1 MOL       0.0000
   1043 O213        12.8655   -10.5014    23.8718 O         1 MOL       0.0000
   1044 O214        14.6340     1.3940    16.0999 O         1 MOL       0.0000
   1045 O215        13.8195    -8.2399    23.4077 O         1 MOL       0.0000
   1046 O216        12.9278    -0.3631    15.5825 O         1 MOL       0.0000
   1047 O217        16.0853    -2.6904    18.4487 O         1 MOL       0.0000
   1048 O218         9.4504    -8.5699    21.0993 O         1 MOL       0.0000
   1049 O219        15.2368   -11.3556    25.1739 O         1 MOL       0.0000
   1050 O220        13.4843     3.3176    14.3259 O         1 MOL       0.0000
   1051 O221        16.0389    -8.5675    25.1688 O         1 MOL       0.0000
   1052 O222        11.2483     1.4819    14.2658 O         1 MOL       0.0000
   1053 O223        11.2699    -9.8994    21.1789 O         1 MOL       0.0000
   1054 O224        14.1223    -1.5896    18.3096 O         1 MOL       0.0000
   1055 O225        20.7771    -1.4929    14.3120 O         1 MOL       0.0000
   1056 O226         6.6228    -5.4533    25.0998 O         1 MOL       0.0000
   1057 O227        19.9816    -4.2472    14.3414 O         1 MOL       0.0000
   1058 O228         8.8910    -3.6709    25.1811 O         1 MOL       0.0000
   1059 O229        15.8492    -1.0359    16.2204 O         1 MOL       0.0000
   1060 O230        11.1473    -8.0397    23.2015 O         1 MOL       0.0000
   1061 O231        18.3033    -2.2611    13.2876 O         1 MOL       0.0000
   1062 O232         9.1007    -6.2250    26.2159 O         1 MOL       0.0000
   1063 H305        15.0732    -6.1488    21.7150 H         1 MOL       0.0000
   1064 H306         4.7600     2.9760    19.3207 H         1 MOL       0.0000
   1065 H307        15.8204     2.5792    18.7955 H         1 MOL       0.0000
   1066 H308        16.0662    -4.6118    19.9977 H         1 MOL       0.0000
   1067 H309        11.4102    -3.8919    21.6106 H         1 MOL       0.0000
   1068 H310        23.4940   -10.2835    20.2121 H         1 MOL       0.0000
   1069 H311        12.7410    -5.7893    22.4781 H         1 MOL       0.0000
   1070 H312        12.4190    -2.3350    19.9176 H         1 MOL       0.0000
   1071 H313        17.1586     0.8097    17.6781 H         1 MOL       0.0000
   1072 H314        19.6147     0.7104    17.9741 H         1 MOL       0.0000
   1073 C345        14.2938    -3.3953    19.8467 C         1 MOL       0.0000
   1074 C346        13.1825    -5.1117    21.7489 C         1 MOL       0.0000
   1075 C347        17.6537     1.5349    18.3230 C         1 MOL       0.0000
   1076 C348         9.4450   -10.6036    19.8567 C         1 MOL       0.0000
   1077 C349        12.9833    -3.1790    20.3078 C         1 MOL       0.0000
   1078 C350        14.4987    -5.3143    21.3168 C         1 MOL       0.0000
   1079 C351        16.8992     2.5430    18.9356 C         1 MOL       0.0000
   1080 C352         3.6790     2.9827    19.2017 C         1 MOL       0.0000
   1081 C353        19.0406     1.4771    18.4908 C         1 MOL       0.0000
   1082 C354        24.0534   -11.0972    19.7572 C         1 MOL       0.0000
   1083 C355        15.0539    -4.4595    20.3642 C         1 MOL       0.0000
   1084 C356        12.4269    -4.0431    21.2514 C         1 MOL       0.0000
   1085 N55         16.5616     2.8958    14.4105 N         1 MOL       0.0000
   1086 N56         13.4077    -4.9584    26.0911 N         1 MOL       0.0000
   1087 C357        16.4311     3.5988    13.2268 C         1 MOL       0.0000
   1088 C358        12.6872    -3.9898    25.4266 C         1 MOL       0.0000
   1089 C359        15.7318    -4.9144    25.0583 C         1 MOL       0.0000
   1090 C360        16.0875     3.4115    15.7243 C         1 MOL       0.0000
   1091 C361        17.5708     2.0147    14.2647 C         1 MOL       0.0000
   1092 C362        14.5142    -5.7343    25.4888 C         1 MOL       0.0000
   1093 H315        11.2632    -2.5327    26.2621 H         1 MOL       0.0000
   1094 H316        12.8980    -3.6984    24.4039 H         1 MOL       0.0000
   1095 H317        15.4851    -4.1400    24.3219 H         1 MOL       0.0000
   1096 H318        15.7598     4.4390    15.6046 H         1 MOL       0.0000
   1097 H319        16.2289    -4.4302    25.9064 H         1 MOL       0.0000
   1098 H320        15.2651     2.8169    16.0940 H         1 MOL       0.0000
   1099 H321        16.4397    -5.5969    24.5669 H         1 MOL       0.0000
   1100 H322        14.0935    -6.2617    24.6239 H         1 MOL       0.0000
   1101 H323        16.9170     3.3343    16.4339 H         1 MOL       0.0000
   1102 H324        18.0886     1.5147    15.0700 H         1 MOL       0.0000
   1103 H325        14.7838    -6.4873    26.2340 H         1 MOL       0.0000
   1104 N57         13.3527    -0.9743    26.2398 N         1 MOL       0.0000
   1105 C363        11.7616    -7.0602    14.8753 C         1 MOL       0.0000
   1106 C364        20.8764   -13.2645    23.8680 C         1 MOL       0.0000
   1107 O233        25.0781    -7.9068    15.7272 O         1 MOL       0.0000
   1108 O234        20.0770     3.8660    14.6240 O         1 MOL       0.0000
   1109 O235        12.6409    -1.5419    23.8638 O         1 MOL       0.0000
   1110 O236        15.3837    -1.2002    22.4964 O         1 MOL       0.0000
   1111 F61         11.4616    -5.6292    15.4483 F         1 MOL       0.0000
   1112 F62         21.0522   -11.2001    25.1257 F         1 MOL       0.0000
   1113 F63         13.3961    -6.1410    14.1823 F         1 MOL       0.0000
   1114 F64         10.9586    -7.8315    17.1245 F         1 MOL       0.0000
   1115 F65         19.9837   -12.2948    23.3473 F         1 MOL       0.0000
   1116 F66         13.7678     0.3741    21.8880 F         1 MOL       0.0000
   1117 S21         19.1556     5.5769    14.4696 S         1 MOL       0.0000
   1118 S22         13.9637    -0.9725    24.2381 S         1 MOL       0.0000
   1119 N58         14.5457    -6.0722    16.4952 N         1 MOL       0.0000
   1120 N59         12.7569    -5.2700    17.5324 N         1 MOL       0.0000
   1121 C365        15.5232    -6.4481    15.3992 C         1 MOL       0.0000
   1122 C366        13.5439    -5.1637    16.4349 C         1 MOL       0.0000
   1123 C367        14.3747    -6.7978    17.6782 C         1 MOL       0.0000
   1124 C368        15.3874    -7.8415    14.7180 C         1 MOL       0.0000
   1125 C369        13.2740    -6.2964    18.3136 C         1 MOL       0.0000
   1126 C370        11.3406    -4.8150    17.7276 C         1 MOL       0.0000
   1127 H326        16.5165    -6.3581    15.8458 H         1 MOL       0.0000
   1128 H327        15.4161    -5.6804    14.6278 H         1 MOL       0.0000
   1129 H328        13.3556    -4.4947    15.5926 H         1 MOL       0.0000
   1130 H329        16.3253    -8.0175    14.1642 H         1 MOL       0.0000
   1131 H330        15.0725    -7.5641    17.9847 H         1 MOL       0.0000
   1132 H331        11.2159    -4.3233    18.6987 H         1 MOL       0.0000
   1133 H332        11.0054    -4.1691    16.9082 H         1 MOL       0.0000
   1134 H333        15.2552    -8.6788    15.4110 H         1 MOL       0.0000
   1135 H334        12.7645    -6.6035    19.2132 H         1 MOL       0.0000
   1136 H335        14.5662    -7.8744    13.9859 H         1 MOL       0.0000
   1137 H336        10.7282    -5.7179    17.6818 H         1 MOL       0.0000
   1138 N60         10.7962    -7.0829    14.0173 N         1 MOL       0.0000
   1139 C371         9.9577    -8.5284    16.8896 C         1 MOL       0.0000
   1140 C372        20.7003   -14.0988    25.2805 C         1 MOL       0.0000
   1141 O237        12.0499    -4.4276    13.3367 O         1 MOL       0.0000
   1142 O238         6.2982     5.0766    15.7185 O         1 MOL       0.0000
   1143 O239         7.6727   -13.6780    25.0758 O         1 MOL       0.0000
   1144 O240         5.9307     5.3789    13.1901 O         1 MOL       0.0000
   1145 F67          9.0127    -8.2047    17.8928 F         1 MOL       0.0000
   1146 F68         19.2036   -13.6456    25.9110 F         1 MOL       0.0000
   1147 F69         17.9751     4.5033    15.2105 F         1 MOL       0.0000
   1148 F70          3.6431     4.7075    17.0251 F         1 MOL       0.0000
   1149 F71         22.0447   -13.3711    23.6761 F         1 MOL       0.0000
   1150 F72         14.8730    -1.9269    24.7338 F         1 MOL       0.0000
   1151 S23          6.9793   -12.7754    25.9392 S         1 MOL       0.0000
   1152 S24          5.5672     5.6337    14.6026 S         1 MOL       0.0000
   1153 Ti49         6.6276    16.2858    11.2794 Ti        1 MOL       0.0000
   1154 Ti50        17.4580    19.1670     1.9146 Ti        1 MOL       0.0000
   1155 Ti51        10.7242    12.3496     9.4594 Ti        1 MOL       0.0000
   1156 Ti52        12.2354    21.5117     3.6864 Ti        1 MOL       0.0000
   1157 Ti53        11.2369    23.1900     1.7820 Ti        1 MOL       0.0000
   1158 Ti54        12.6125    12.0952    11.4128 Ti        1 MOL       0.0000
   1159 Ti55         7.5768    14.5499     9.3879 Ti        1 MOL       0.0000
   1160 Ti56        15.4702    19.4695     3.7621 Ti        1 MOL       0.0000
   1161 H337         7.1294    20.1828    11.0599 H         1 MOL       0.0000
   1162 H338        18.2668    15.2609     2.2353 H         1 MOL       0.0000
   1163 H339         2.6677    15.5291    10.8970 H         1 MOL       0.0000
   1164 H340        20.8402    21.1713     2.1152 H         1 MOL       0.0000
   1165 H341        13.5881     8.0607    11.0269 H         1 MOL       0.0000
   1166 H342         7.1783    22.6001     2.1040 H         1 MOL       0.0000
   1167 H343         7.0963    14.4872    13.0039 H         1 MOL       0.0000
   1168 H344        15.5825    18.9243     0.2147 H         1 MOL       0.0000
   1169 H345        13.1224    11.4281     5.9017 H         1 MOL       0.0000
   1170 H346        10.5120    23.3487     7.3053 H         1 MOL       0.0000
   1171 H347         3.5041    17.9385     9.0320 H         1 MOL       0.0000
   1172 H348        20.2128    17.0826     4.2206 H         1 MOL       0.0000
   1173 H349         5.8052    16.4911     5.6982 H         1 MOL       0.0000
   1174 H350         8.1368    25.0179     4.1352 H         1 MOL       0.0000
   1175 H351        11.6291    26.2928     2.6375 H         1 MOL       0.0000
   1176 H352        18.1090    13.2421     3.4378 H         1 MOL       0.0000
   1177 H353        14.3281    21.1918     2.3478 H         1 MOL       0.0000
   1178 H354         9.6435    14.1980    10.7530 H         1 MOL       0.0000
   1179 H355        16.8472    14.0301     9.8025 H         1 MOL       0.0000
   1180 H356        15.3661    13.5610    10.5498 H         1 MOL       0.0000
   1181 H357        17.4213    18.4637     8.7035 H         1 MOL       0.0000
   1182 H358        16.8516    18.8223     7.0850 H         1 MOL       0.0000
   1183 H359        16.3584     9.0752     9.6124 H         1 MOL       0.0000
   1184 H360        15.0792    10.1758    10.0698 H         1 MOL       0.0000
   1185 C373        18.0361    18.4257     4.7781 C         1 MOL       0.0000
   1186 C374         5.6670    16.5472     8.4324 C         1 MOL       0.0000
   1187 C375        13.3048    11.3389     8.5347 C         1 MOL       0.0000
   1188 C376        10.2993    23.4822     4.6457 C         1 MOL       0.0000
   1189 C377        18.9321    17.8214     5.7733 C         1 MOL       0.0000
   1190 C378         4.7351    17.1722     7.4553 C         1 MOL       0.0000
   1191 C379        14.2450    10.7245     7.5875 C         1 MOL       0.0000
   1192 C380         9.4095    24.1290     5.6455 C         1 MOL       0.0000
   1193 C381        18.6833    17.8963     7.1797 C         1 MOL       0.0000
   1194 C382         4.9515    17.0522     6.0673 C         1 MOL       0.0000
   1195 C383        15.3744     9.9642     8.0406 C         1 MOL       0.0000
   1196 C384         8.3148    24.9020     5.2006 C         1 MOL       0.0000
   1197 C385         9.6640    23.9582     7.0004 C         1 MOL       0.0000
   1198 C386        13.9972    10.8566     6.2036 C         1 MOL       0.0000
   1199 C387        20.0658    17.1224     5.2976 C         1 MOL       0.0000
   1200 C388         3.6349    17.8646     7.9540 C         1 MOL       0.0000
   1201 C389        18.2478    15.3400     0.0912 C         1 MOL       0.0000
   1202 C390        11.7781    27.1316     0.1162 C         1 MOL       0.0000
   1203 C391        16.0973    14.0371    13.0602 C         1 MOL       0.0000
   1204 C392         2.7390    15.5795    13.0408 C         1 MOL       0.0000
   1205 C393        12.9822    19.1685     5.6510 C         1 MOL       0.0000
   1206 C394         8.2261    12.0742     7.5691 C         1 MOL       0.0000
   1207 C395        13.4770     9.7288    13.1630 C         1 MOL       0.0000
   1208 C396        11.6854    25.6981     0.0787 C         1 MOL       0.0000
   1209 C397        14.7995    13.4203    13.1070 C         1 MOL       0.0000
   1210 C398         4.1413    15.9939    13.0653 C         1 MOL       0.0000
   1211 C399        18.2872    14.6709     1.3209 C         1 MOL       0.0000
   1212 C400         7.1404    20.7713    11.9738 C         1 MOL       0.0000
   1213 C401         5.3876    21.9349     1.1091 C         1 MOL       0.0000
   1214 C402         2.1062    15.3498    11.8123 C         1 MOL       0.0000
   1215 C403        16.7919    14.3054    11.8268 C         1 MOL       0.0000
   1216 C404         6.6768    22.4151     1.1583 C         1 MOL       0.0000
   1217 C405        13.6297     7.5335    11.9759 C         1 MOL       0.0000
   1218 C406        18.3089    13.2698     1.4025 C         1 MOL       0.0000
   1219 N61         18.3639    12.6709     2.6406 N         1 MOL       0.0000
   1220 N62         16.2129    14.1226    10.5878 N         1 MOL       0.0000
   1221 N63         17.6025    18.5426     7.7110 N         1 MOL       0.0000
   1222 N64         15.7054     9.8060     9.3580 N         1 MOL       0.0000
   1223 O241        16.8598    18.8308     5.1439 O         1 MOL       0.0000
   1224 O242         6.4360    15.5963     8.0341 O         1 MOL       0.0000
   1225 O243        13.6862    11.4633     9.7558 O         1 MOL       0.0000
   1226 O244        10.2335    23.9119     3.4461 O         1 MOL       0.0000
   1227 O245        11.0698    22.5250     5.0322 O         1 MOL       0.0000
   1228 O246        12.1343    11.7073     8.1292 O         1 MOL       0.0000
   1229 O247        18.4480    18.5065     3.5664 O         1 MOL       0.0000
   1230 O248         5.6250    16.9834     9.6321 O         1 MOL       0.0000
   1231 O249        15.7754    18.2516     2.5674 O         1 MOL       0.0000
   1232 O250         8.1292    16.1102    10.1324 O         1 MOL       0.0000
   1233 O251        16.7142    20.5389     3.0173 O         1 MOL       0.0000
   1234 O252         6.3770    14.3855    10.6251 O         1 MOL       0.0000
   1235 O253        10.9835    11.1776    10.7198 O         1 MOL       0.0000
   1236 O254        12.7520    23.0730     2.9479 O         1 MOL       0.0000
   1237 O255        11.9375    13.4391    10.2557 O         1 MOL       0.0000
   1238 O256        11.0458    21.3159     2.4305 O         1 MOL       0.0000
   1239 O257        14.2033    18.9886     5.2967 O         1 MOL       0.0000
   1240 O258         7.5684    13.1091     7.9473 O         1 MOL       0.0000
   1241 O259        13.3548    10.3234    12.0219 O         1 MOL       0.0000
   1242 O260        11.6023    24.9966     1.1739 O         1 MOL       0.0000
   1243 O261        14.1569    13.1115    12.0168 O         1 MOL       0.0000
   1244 O262         9.3663    23.1609     1.1138 O         1 MOL       0.0000
   1245 O263         9.3879    11.7796     8.0269 O         1 MOL       0.0000
   1246 O264        12.2403    20.0894     5.1576 O         1 MOL       0.0000
   1247 O265        18.8951    20.1861     1.1600 O         1 MOL       0.0000
   1248 O266         4.7408    16.2257    11.9478 O         1 MOL       0.0000
   1249 O267        18.0995    17.4318     1.1894 O         1 MOL       0.0000
   1250 O268         7.0090    18.0080    12.0291 O         1 MOL       0.0000
   1251 O269        13.9672    20.6431     3.0684 O         1 MOL       0.0000
   1252 O270         9.2653    13.6393    10.0495 O         1 MOL       0.0000
   1253 O271        16.4213    19.4179     0.1356 O         1 MOL       0.0000
   1254 O272         7.2187    15.4540    13.0639 O         1 MOL       0.0000
   1255 H361        13.1912    15.5302     8.5630 H         1 MOL       0.0000
   1256 H362         2.8780    24.6550     6.1687 H         1 MOL       0.0000
   1257 H363        13.9384    24.2582     5.6435 H         1 MOL       0.0000
   1258 H364        14.1842    17.0672     6.8457 H         1 MOL       0.0000
   1259 H365         9.5282    17.7871     8.4586 H         1 MOL       0.0000
   1260 H366        21.6120    11.3955     7.0601 H         1 MOL       0.0000
   1261 H367        10.8590    15.8897     9.3261 H         1 MOL       0.0000
   1262 H368        10.5370    19.3440     6.7656 H         1 MOL       0.0000
   1263 H369        15.2766    22.4887     4.5261 H         1 MOL       0.0000
   1264 H370        17.7327    22.3894     4.8221 H         1 MOL       0.0000
   1265 C407        12.4118    18.2837     6.6947 C         1 MOL       0.0000
   1266 C408        11.3005    16.5673     8.5969 C         1 MOL       0.0000
   1267 C409        15.7717    23.2139     5.1710 C         1 MOL       0.0000
   1268 C410         7.5630    11.0754     6.7047 C         1 MOL       0.0000
   1269 C411        11.1013    18.5000     7.1558 C         1 MOL       0.0000
   1270 C412        12.6167    16.3647     8.1648 C         1 MOL       0.0000
   1271 C413        15.0172    24.2220     5.7836 C         1 MOL       0.0000
   1272 C414         1.7970    24.6617     6.0497 C         1 MOL       0.0000
   1273 C415        17.1586    23.1561     5.3388 C         1 MOL       0.0000
   1274 C416        22.1714    10.5818     6.6052 C         1 MOL       0.0000
   1275 C417        13.1719    17.2195     7.2122 C         1 MOL       0.0000
   1276 C418        10.5449    17.6359     8.0994 C         1 MOL       0.0000
   1277 N65         14.6796    24.5748     1.2585 N         1 MOL       0.0000
   1278 N66         11.5257    16.7206    12.9391 N         1 MOL       0.0000
   1279 C419        14.5491    25.2778     0.0748 C         1 MOL       0.0000
   1280 C420        10.8052    17.6892    12.2746 C         1 MOL       0.0000
   1281 C421        13.8498    16.7646    11.9063 C         1 MOL       0.0000
   1282 C422        14.2055    25.0905     2.5723 C         1 MOL       0.0000
   1283 C423        15.6888    23.6937     1.1127 C         1 MOL       0.0000
   1284 C424        12.6322    15.9447    12.3368 C         1 MOL       0.0000
   1285 H371         9.3812    19.1463    13.1101 H         1 MOL       0.0000
   1286 H372        11.0160    17.9806    11.2519 H         1 MOL       0.0000
   1287 H373        13.6031    17.5390    11.1699 H         1 MOL       0.0000
   1288 H374        13.8778    26.1180     2.4526 H         1 MOL       0.0000
   1289 H375        14.3469    17.2488    12.7544 H         1 MOL       0.0000
   1290 H376        13.3831    24.4959     2.9420 H         1 MOL       0.0000
   1291 H377        14.5577    16.0821    11.4149 H         1 MOL       0.0000
   1292 H378        12.2115    15.4173    11.4719 H         1 MOL       0.0000
   1293 H379        15.0350    25.0133     3.2819 H         1 MOL       0.0000
   1294 H380        16.2066    23.1937     1.9180 H         1 MOL       0.0000
   1295 H381        12.9018    15.1917    13.0820 H         1 MOL       0.0000
   1296 N67         11.4707    20.7047    13.0878 N         1 MOL       0.0000
   1297 C425         9.8796    14.6188     1.7233 C         1 MOL       0.0000
   1298 C426        18.9944     8.4145    10.7160 C         1 MOL       0.0000
   1299 O273        23.1961    13.7722     2.5752 O         1 MOL       0.0000
   1300 O274        18.1950    25.5450     1.4720 O         1 MOL       0.0000
   1301 O275        10.7589    20.1371    10.7118 O         1 MOL       0.0000
   1302 O276        13.5017    20.4788     9.3444 O         1 MOL       0.0000
   1303 F73          9.5796    16.0498     2.2963 F         1 MOL       0.0000
   1304 F74         19.1702    10.4789    11.9737 F         1 MOL       0.0000
   1305 F75         11.5141    15.5380     1.0303 F         1 MOL       0.0000
   1306 F76          9.0766    13.8475     3.9725 F         1 MOL       0.0000
   1307 F77         18.1017     9.3842    10.1953 F         1 MOL       0.0000
   1308 F78         11.8858    22.0531     8.7360 F         1 MOL       0.0000
   1309 S25         17.2736    27.2559     1.3176 S         1 MOL       0.0000
   1310 S26         12.0817    20.7065    11.0861 S         1 MOL       0.0000
   1311 N68         12.6637    15.6068     3.3432 N         1 MOL       0.0000
   1312 N69         10.8749    16.4090     4.3804 N         1 MOL       0.0000
   1313 C427        13.6412    15.2309     2.2472 C         1 MOL       0.0000
   1314 C428        11.6619    16.5153     3.2829 C         1 MOL       0.0000
   1315 C429        12.4927    14.8812     4.5262 C         1 MOL       0.0000
   1316 C430        13.5054    13.8375     1.5660 C         1 MOL       0.0000
   1317 C431        11.3920    15.3826     5.1616 C         1 MOL       0.0000
   1318 C432         9.4586    16.8640     4.5756 C         1 MOL       0.0000
   1319 H382        14.6345    15.3209     2.6938 H         1 MOL       0.0000
   1320 H383        13.5341    15.9986     1.4758 H         1 MOL       0.0000
   1321 H384        11.4736    17.1843     2.4406 H         1 MOL       0.0000
   1322 H385        14.4433    13.6615     1.0122 H         1 MOL       0.0000
   1323 H386        13.1905    14.1149     4.8327 H         1 MOL       0.0000
   1324 H387         9.3339    17.3557     5.5467 H         1 MOL       0.0000
   1325 H388         9.1234    17.5099     3.7562 H         1 MOL       0.0000
   1326 H389        13.3732    13.0002     2.2590 H         1 MOL       0.0000
   1327 H390        10.8825    15.0755     6.0612 H         1 MOL       0.0000
   1328 H391        12.6842    13.8046     0.8339 H         1 MOL       0.0000
   1329 H392         8.8462    15.9611     4.5298 H         1 MOL       0.0000
   1330 N70          8.9142    14.5961     0.8653 N         1 MOL       0.0000
   1331 C433         8.0757    13.1506     3.7376 C         1 MOL       0.0000
   1332 C434        18.8183     7.5802    12.1285 C         1 MOL       0.0000
   1333 O277        10.1679    17.2514     0.1847 O         1 MOL       0.0000
   1334 O278         4.4162    26.7556     2.5665 O         1 MOL       0.0000
   1335 O279         5.7907     8.0010    11.9238 O         1 MOL       0.0000
   1336 O280         4.0487    27.0579     0.0381 O         1 MOL       0.0000
   1337 F79          7.1307    13.4743     4.7408 F         1 MOL       0.0000
   1338 F80         17.3216     8.0334    12.7590 F         1 MOL       0.0000
   1339 F81         16.0931    26.1823     2.0585 F         1 MOL       0.0000
   1340 F82          1.7611    26.3865     3.8731 F         1 MOL       0.0000
   1341 F83         20.1627     8.3079    10.5241 F         1 MOL       0.0000
   1342 F84         12.9910    19.7521    11.5818 F         1 MOL       0.0000
   1343 S27          5.0973     8.9036    12.7872 S         1 MOL       0.0000
   1344 S28          3.6852    27.3127     1.4506 S         1 MOL       0.0000
   1345 Ti57         1.9926     9.2198    24.3744 Ti        1 MOL       0.0000
   1346 Ti58        12.8230    12.1010    15.0096 Ti        1 MOL       0.0000
   1347 Ti59         6.0892     5.2836    22.5544 Ti        1 MOL       0.0000
   1348 Ti60         7.6004    14.4457    16.7814 Ti        1 MOL       0.0000
   1349 Ti61         6.6019    16.1240    14.8770 Ti        1 MOL       0.0000
   1350 Ti62         7.9775     5.0292    24.5078 Ti        1 MOL       0.0000
   1351 Ti63         2.9418     7.4839    22.4829 Ti        1 MOL       0.0000
   1352 Ti64        10.8352    12.4035    16.8571 Ti        1 MOL       0.0000
   1353 H393         2.4944    13.1168    24.1549 H         1 MOL       0.0000
   1354 H394        13.6318     8.1949    15.3303 H         1 MOL       0.0000
   1355 H395        -1.9673     8.4631    23.9920 H         1 MOL       0.0000
   1356 H396        16.2052    14.1053    15.2102 H         1 MOL       0.0000
   1357 H397         8.9531     0.9947    24.1219 H         1 MOL       0.0000
   1358 H398         2.5433    15.5341    15.1991 H         1 MOL       0.0000
   1359 H399         2.4613     7.4212    26.0989 H         1 MOL       0.0000
   1360 H400        10.9475    11.8583    13.3096 H         1 MOL       0.0000
   1361 H401         8.4874     4.3621    18.9967 H         1 MOL       0.0000
   1362 H402         5.8770    16.2827    20.4003 H         1 MOL       0.0000
   1363 H403        -1.1309    10.8725    22.1270 H         1 MOL       0.0000
   1364 H404        15.5778    10.0166    17.3156 H         1 MOL       0.0000
   1365 H405         1.1702     9.4251    18.7932 H         1 MOL       0.0000
   1366 H406         3.5018    17.9519    17.2302 H         1 MOL       0.0000
   1367 H407         6.9941    19.2268    15.7325 H         1 MOL       0.0000
   1368 H408        13.4740     6.1761    16.5328 H         1 MOL       0.0000
   1369 H409         9.6931    14.1258    15.4428 H         1 MOL       0.0000
   1370 H410         5.0085     7.1320    23.8480 H         1 MOL       0.0000
   1371 H411        12.2122     6.9641    22.8975 H         1 MOL       0.0000
   1372 H412        10.7311     6.4950    23.6448 H         1 MOL       0.0000
   1373 H413        12.7863    11.3977    21.7985 H         1 MOL       0.0000
   1374 H414        12.2166    11.7563    20.1800 H         1 MOL       0.0000
   1375 H415        11.7234     2.0092    22.7074 H         1 MOL       0.0000
   1376 H416        10.4442     3.1098    23.1648 H         1 MOL       0.0000
   1377 C435        13.4011    11.3597    17.8731 C         1 MOL       0.0000
   1378 C436         1.0320     9.4811    21.5274 C         1 MOL       0.0000
   1379 C437         8.6698     4.2729    21.6297 C         1 MOL       0.0000
   1380 C438         5.6643    16.4162    17.7407 C         1 MOL       0.0000
   1381 C439        14.2971    10.7554    18.8683 C         1 MOL       0.0000
   1382 C440         0.1001    10.1062    20.5503 C         1 MOL       0.0000
   1383 C441         9.6100     3.6585    20.6825 C         1 MOL       0.0000
   1384 C442         4.7745    17.0630    18.7405 C         1 MOL       0.0000
   1385 C443        14.0483    10.8303    20.2747 C         1 MOL       0.0000
   1386 C444         0.3165     9.9862    19.1623 C         1 MOL       0.0000
   1387 C445        10.7394     2.8982    21.1356 C         1 MOL       0.0000
   1388 C446         3.6798    17.8360    18.2956 C         1 MOL       0.0000
   1389 C447         5.0290    16.8923    20.0954 C         1 MOL       0.0000
   1390 C448         9.3622     3.7906    19.2986 C         1 MOL       0.0000
   1391 C449        15.4308    10.0564    18.3926 C         1 MOL       0.0000
   1392 C450        -1.0001    10.7986    21.0490 C         1 MOL       0.0000
   1393 C451        13.6128     8.2740    13.1862 C         1 MOL       0.0000
   1394 C452         7.1431    20.0656    13.2112 C         1 MOL       0.0000
   1395 C453        11.4623     6.9711    26.1552 C         1 MOL       0.0000
   1396 C454        -1.8960     8.5135    26.1358 C         1 MOL       0.0000
   1397 C455         8.3472    12.1025    18.7460 C         1 MOL       0.0000
   1398 C456         3.5911     5.0082    20.6641 C         1 MOL       0.0000
   1399 C457         8.8420     2.6628    26.2580 C         1 MOL       0.0000
   1400 C458         7.0504    18.6321    13.1737 C         1 MOL       0.0000
   1401 C459        10.1645     6.3543    26.2020 C         1 MOL       0.0000
   1402 C460        -0.4937     8.9279    26.1603 C         1 MOL       0.0000
   1403 C461        13.6522     7.6049    14.4159 C         1 MOL       0.0000
   1404 C462         2.5054    13.7053    25.0688 C         1 MOL       0.0000
   1405 C463         0.7526    14.8689    14.2041 C         1 MOL       0.0000
   1406 C464        -2.5288     8.2838    24.9073 C         1 MOL       0.0000
   1407 C465        12.1569     7.2394    24.9218 C         1 MOL       0.0000
   1408 C466         2.0418    15.3491    14.2533 C         1 MOL       0.0000
   1409 C467         8.9947     0.4675    25.0709 C         1 MOL       0.0000
   1410 C468        13.6739     6.2038    14.4975 C         1 MOL       0.0000
   1411 N71         13.7289     5.6049    15.7356 N         1 MOL       0.0000
   1412 N72         11.5779     7.0566    23.6828 N         1 MOL       0.0000
   1413 N73         12.9675    11.4766    20.8060 N         1 MOL       0.0000
   1414 N74         11.0704     2.7400    22.4530 N         1 MOL       0.0000
   1415 O281        12.2248    11.7648    18.2389 O         1 MOL       0.0000
   1416 O282         1.8010     8.5303    21.1291 O         1 MOL       0.0000
   1417 O283         9.0512     4.3973    22.8508 O         1 MOL       0.0000
   1418 O284         5.5985    16.8459    16.5412 O         1 MOL       0.0000
   1419 O285         6.4348    15.4590    18.1272 O         1 MOL       0.0000
   1420 O286         7.4993     4.6413    21.2242 O         1 MOL       0.0000
   1421 O287        13.8130    11.4405    16.6614 O         1 MOL       0.0000
   1422 O288         0.9900     9.9174    22.7271 O         1 MOL       0.0000
   1423 O289        11.1404    11.1856    15.6624 O         1 MOL       0.0000
   1424 O290         3.4942     9.0442    23.2274 O         1 MOL       0.0000
   1425 O291        12.0792    13.4729    16.1123 O         1 MOL       0.0000
   1426 O292         1.7420     7.3195    23.7201 O         1 MOL       0.0000
   1427 O293         6.3486     4.1116    23.8148 O         1 MOL       0.0000
   1428 O294         8.1170    16.0070    16.0429 O         1 MOL       0.0000
   1429 O295         7.3025     6.3731    23.3507 O         1 MOL       0.0000
   1430 O296         6.4108    14.2499    15.5255 O         1 MOL       0.0000
   1431 O297         9.5683    11.9226    18.3917 O         1 MOL       0.0000
   1432 O298         2.9334     6.0431    21.0423 O         1 MOL       0.0000
   1433 O299         8.7198     3.2574    25.1169 O         1 MOL       0.0000
   1434 O300         6.9673    17.9306    14.2689 O         1 MOL       0.0000
   1435 O301         9.5219     6.0455    25.1118 O         1 MOL       0.0000
   1436 O302         4.7313    16.0949    14.2088 O         1 MOL       0.0000
   1437 O303         4.7529     4.7136    21.1219 O         1 MOL       0.0000
   1438 O304         7.6053    13.0234    18.2526 O         1 MOL       0.0000
   1439 O305        14.2601    13.1201    14.2550 O         1 MOL       0.0000
   1440 O306         0.1058     9.1597    25.0428 O         1 MOL       0.0000
   1441 O307        13.4645    10.3658    14.2844 O         1 MOL       0.0000
   1442 O308         2.3740    10.9420    25.1241 O         1 MOL       0.0000
   1443 O309         9.3322    13.5771    16.1634 O         1 MOL       0.0000
   1444 O310         4.6303     6.5733    23.1445 O         1 MOL       0.0000
   1445 O311        11.7863    12.3519    13.2306 O         1 MOL       0.0000
   1446 O312         2.5837     8.3880    26.1589 O         1 MOL       0.0000
   1447 H417         8.5562     8.4642    21.6580 H         1 MOL       0.0000
   1448 H418        -1.7570    17.5890    19.2637 H         1 MOL       0.0000
   1449 H419         9.3034    17.1922    18.7385 H         1 MOL       0.0000
   1450 H420         9.5492    10.0012    19.9407 H         1 MOL       0.0000
   1451 H421         4.8932    10.7211    21.5536 H         1 MOL       0.0000
   1452 H422        16.9770     4.3295    20.1551 H         1 MOL       0.0000
   1453 H423         6.2240     8.8237    22.4211 H         1 MOL       0.0000
   1454 H424         5.9020    12.2780    19.8606 H         1 MOL       0.0000
   1455 H425        10.6416    15.4227    17.6211 H         1 MOL       0.0000
   1456 H426        13.0977    15.3234    17.9171 H         1 MOL       0.0000
   1457 C469         7.7768    11.2177    19.7897 C         1 MOL       0.0000
   1458 C470         6.6655     9.5013    21.6919 C         1 MOL       0.0000
   1459 C471        11.1367    16.1479    18.2660 C         1 MOL       0.0000
   1460 C472         2.9280     4.0094    19.7997 C         1 MOL       0.0000
   1461 C473         6.4663    11.4340    20.2508 C         1 MOL       0.0000
   1462 C474         7.9817     9.2987    21.2598 C         1 MOL       0.0000
   1463 C475        10.3822    17.1560    18.8786 C         1 MOL       0.0000
   1464 C476        -2.8380    17.5957    19.1447 C         1 MOL       0.0000
   1465 C477        12.5236    16.0901    18.4338 C         1 MOL       0.0000
   1466 C478        17.5364     3.5158    19.7002 C         1 MOL       0.0000
   1467 C479         8.5369    10.1535    20.3072 C         1 MOL       0.0000
   1468 C480         5.9099    10.5699    21.1944 C         1 MOL       0.0000
   1469 N75         10.0446    17.5088    14.3535 N         1 MOL       0.0000
   1470 N76          6.8907     9.6546    26.0341 N         1 MOL       0.0000
   1471 C481         9.9141    18.2118    13.1698 C         1 MOL       0.0000
   1472 C482         6.1702    10.6232    25.3696 C         1 MOL       0.0000
   1473 C483         9.2148     9.6986    25.0013 C         1 MOL       0.0000
   1474 C484         9.5705    18.0245    15.6673 C         1 MOL       0.0000
   1475 C485        11.0538    16.6277    14.2077 C         1 MOL       0.0000
   1476 C486         7.9972     8.8787    25.4318 C         1 MOL       0.0000
   1477 H427         4.7462    12.0803    26.2051 H         1 MOL       0.0000
   1478 H428         6.3810    10.9146    24.3469 H         1 MOL       0.0000
   1479 H429         8.9681    10.4730    24.2649 H         1 MOL       0.0000
   1480 H430         9.2428    19.0520    15.5476 H         1 MOL       0.0000
   1481 H431         9.7119    10.1828    25.8494 H         1 MOL       0.0000
   1482 H432         8.7481    17.4299    16.0370 H         1 MOL       0.0000
   1483 H433         9.9227     9.0161    24.5099 H         1 MOL       0.0000
   1484 H434         7.5765     8.3513    24.5669 H         1 MOL       0.0000
   1485 H435        10.4000    17.9473    16.3769 H         1 MOL       0.0000
   1486 H436        11.5716    16.1277    15.0130 H         1 MOL       0.0000
   1487 H437         8.2668     8.1257    26.1770 H         1 MOL       0.0000
   1488 N77          6.8357    13.6387    26.1828 N         1 MOL       0.0000
   1489 C487         5.2446     7.5528    14.8183 C         1 MOL       0.0000
   1490 C488        14.3594     1.3485    23.8110 C         1 MOL       0.0000
   1491 O313        18.5611     6.7062    15.6702 O         1 MOL       0.0000
   1492 O314        13.5600    18.4790    14.5670 O         1 MOL       0.0000
   1493 O315         6.1239    13.0711    23.8068 O         1 MOL       0.0000
   1494 O316         8.8667    13.4128    22.4394 O         1 MOL       0.0000
   1495 F85          4.9446     8.9838    15.3913 F         1 MOL       0.0000
   1496 F86         14.5352     3.4129    25.0687 F         1 MOL       0.0000
   1497 F87          6.8791     8.4720    14.1253 F         1 MOL       0.0000
   1498 F88          4.4416     6.7815    17.0675 F         1 MOL       0.0000
   1499 F89         13.4667     2.3182    23.2903 F         1 MOL       0.0000
   1500 F90          7.2508    14.9871    21.8310 F         1 MOL       0.0000
   1501 S29         12.6386    20.1899    14.4126 S         1 MOL       0.0000
   1502 S30          7.4467    13.6405    24.1811 S         1 MOL       0.0000
   1503 N78          8.0287     8.5408    16.4382 N         1 MOL       0.0000
   1504 N79          6.2399     9.3430    17.4754 N         1 MOL       0.0000
   1505 C489         9.0062     8.1649    15.3422 C         1 MOL       0.0000
   1506 C490         7.0269     9.4493    16.3779 C         1 MOL       0.0000
   1507 C491         7.8577     7.8152    17.6212 C         1 MOL       0.0000
   1508 C492         8.8704     6.7715    14.6610 C         1 MOL       0.0000
   1509 C493         6.7570     8.3166    18.2566 C         1 MOL       0.0000
   1510 C494         4.8236     9.7980    17.6706 C         1 MOL       0.0000
   1511 H438         9.9995     8.2549    15.7888 H         1 MOL       0.0000
   1512 H439         8.8991     8.9326    14.5708 H         1 MOL       0.0000
   1513 H440         6.8386    10.1183    15.5356 H         1 MOL       0.0000
   1514 H441         9.8083     6.5955    14.1072 H         1 MOL       0.0000
   1515 H442         8.5555     7.0489    17.9277 H         1 MOL       0.0000
   1516 H443         4.6989    10.2897    18.6417 H         1 MOL       0.0000
   1517 H444         4.4884    10.4439    16.8512 H         1 MOL       0.0000
   1518 H445         8.7382     5.9342    15.3540 H         1 MOL       0.0000
   1519 H446         6.2475     8.0095    19.1562 H         1 MOL       0.0000
   1520 H447         8.0492     6.7386    13.9289 H         1 MOL       0.0000
   1521 H448         4.2112     8.8951    17.6248 H         1 MOL       0.0000
   1522 N80          4.2792     7.5301    13.9603 N         1 MOL       0.0000
   1523 C495         3.4407     6.0846    16.8326 C         1 MOL       0.0000
   1524 C496        14.1833     0.5142    25.2235 C         1 MOL       0.0000
   1525 O317         5.5329    10.1854    13.2797 O         1 MOL       0.0000
   1526 O318        -0.2188    19.6896    15.6615 O         1 MOL       0.0000
   1527 O319         1.1557     0.9350    25.0188 O         1 MOL       0.0000
   1528 O320        -0.5863    19.9919    13.1331 O         1 MOL       0.0000
   1529 F91          2.4957     6.4083    17.8358 F         1 MOL       0.0000
   1530 F92         12.6866     0.9674    25.8540 F         1 MOL       0.0000
   1531 F93         11.4581    19.1163    15.1535 F         1 MOL       0.0000
   1532 F94         -2.8739    19.3205    16.9681 F         1 MOL       0.0000
   1533 F95         15.5277     1.2419    23.6191 F         1 MOL       0.0000
   1534 F96          8.3560    12.6861    24.6768 F         1 MOL       0.0000
   1535 S31          0.4623     1.8376    25.8822 S         1 MOL       0.0000
   1536 S32         -0.9498    20.2467    14.5456 S         1 MOL       0.0000
@<TRIPOS>BOND
     1     1    78 1
     2     1    96 1
     3     7    88 1
     4     7   100 1
     5     1     7 1
     6     1    80 1
     7     1    82 1
     8     7    72 1
     9     7    80 1
    10     7    82 1
    11     1   102 1
    12     1   197 1
    13     1    98 1
    14     2     8 1
    15     2    79 1
    16     2    81 1
    17     2   101 1
    18     2    97 1
    19     2    77 1
    20     2    95 1
    21     3    93 1
    22     3   100 1
    23     3    76 1
    24     3    83 1
    25     3    85 1
    26     3     6 1
    27     4    86 1
    28     4    94 1
    29     4     5 1
    30     4    84 1
    31     4    75 1
    32     4    99 1
    33     5    92 1
    34     5    86 1
    35     5    74 1
    36     5    84 1
    37     5    90 1
    38     6    83 1
    39     6    85 1
    40     6   194 1
    41     6   293 1
    42   194   293 1
    43   208   293 1
    44   194   200 1
    45   194   271 1
    46   194   273 1
    47     6    73 1
    48     6    89 1
    49     6    91 1
    50   194   287 1
    51   194   289 1
    52   194   269 1
    53     8    79 1
    54     8    81 1
    55     8    99 1
    56    16   101 1
    57    25    99 1
    58     8    71 1
    59     8    87 1
    60     9    60 1
    61    59    66 1
    62    10    59 1
    63    49    59 1
    64    34    38 1
    65    34    78 1
    66    11    62 1
    67    34    72 1
    68    12   829 1
    69   829   832 1
    70    31    70 1
    71    32    70 1
    72    43    70 1
    73    13    65 1
    74    14    64 1
    75   197   284 1
    76   197   266 1
    77    15   102 1
    78   102   197 1
    79   197   276 1
    80   197   278 1
    81   197   282 1
    82    17    46 1
    83    36    40 1
    84    45   427 1
    85    36    74 1
    86    18    45 1
    87    36    75 1
    88    19    48 1
    89    20    47 1
    90    47   810 1
    91    21    42 1
    92   166   173 1
    93   166   172 1
    94   166   177 1
    95    22    44 1
    96    40    44 1
    97    44   430 1
    98    40    45 1
    99    56    90 1
   100    23   451 1
   101    50    56 1
   102    50   450 1
   103   408   451 1
   104   450   451 1
   105    24    67 1
   106    66    67 1
   107    26   100 1
   108   118   123 1
   109   103   118 1
   110   107   124 1
   111   109   114 1
   112   114   118 1
   113   114   124 1
   114    35    76 1
   115    39    43 1
   116    39    46 1
   117    35    39 1
   118    35    73 1
   119    27    68 1
   120    28    68 1
   121    29    69 1
   122    30    69 1
   123    33    71 1
   124    37    47 1
   125    41   816 1
   126    33    77 1
   127    33    37 1
   128    37    41 1
   129    41    69 1
   130    38    42 1
   131    38    48 1
   132    51    57 1
   133    57    91 1
   134    57   287 1
   135    51    63 1
   136    51  1021 1
   137    52    58 1
   138    52    62 1
   139    52   256 1
   140    58    96 1
   141    58   284 1
   142   113   123 1
   143   117   124 1
   144    53    94 1
   145    53   113 1
   146   110   117 1
   147   113   117 1
   148    53    87 1
   149    54   116 1
   150    54    88 1
   151    54    93 1
   152   251   258 1
   153    55   241 1
   154    65   241 1
   155   241   251 1
   156    55    89 1
   157    55   289 1
   158    60   242 1
   159    98   248 1
   160   242   248 1
   161   242   642 1
   162   248   282 1
   163   642   643 1
   164    60   449 1
   165   133   319 1
   166    61    64 1
   167   129   132 1
   168    63    68 1
   169   129   135 1
   170   129   137 1
   171   129   139 1
   172    63   830 1
   173  1021  1024 1
   174   104   120 1
   175   105   119 1
   176   111   115 1
   177   115   119 1
   178   119   506 1
   179   115   121 1
   180   506  1268 1
   181   106   123 1
   182   108   122 1
   183   122   884 1
   184   947   953 1
   185   112   121 1
   186   121   888 1
   187   872   888 1
   188   888  1268 1
   189   154   179 1
   190   120   500 1
   191   160   166 1
   192   160   162 1
   193   160   165 1
   194   163   165 1
   195   163   171 1
   196   165   175 1
   197   125   127 1
   198   125   130 1
   199   125   131 1
   200   130   138 1
   201   130   141 1
   202   131   142 1
   203   130   136 1
   204   126   128 1
   205   126   132 1
   206   126   323 1
   207   132   140 1
   208   132   143 1
   209   317   323 1
   210   323   334 1
   211   128   134 1
   212   128   319 1
   213   317   319 1
   214   317   322 1
   215   149   158 1
   216   158   190 1
   217   158   564 1
   218   144   158 1
   219   144   349 1
   220   349   379 1
   221   349   723 1
   222   349  1152 1
   223   349  1522 1
   224   145   178 1
   225   145   151 1
   226   159   162 1
   227   162   169 1
   228   159   163 1
   229   159   161 1
   230   146   155 1
   231   146   189 1
   232   146   180 1
   233   157   187 1
   234   157   531 1
   235  1331  1337 1
   236   148   157 1
   237   148   960 1
   238   157   960 1
   239   157  1330 1
   240   950   960 1
   241   952   960 1
   242   960  1297 1
   243  1297  1330 1
   244  1297  1303 1
   245   415   454 1
   246   530   539 1
   247   530   564 1
   248   530   573 1
   249   161   164 1
   250   161   167 1
   251   161   168 1
   252   164   176 1
   253   164   170 1
   254   164   174 1
   255   179   185 1
   256   180   186 1
   257   182   192 1
   258   184   192 1
   259   192   529 1
   260   183   191 1
   261   356   366 1
   262   356   368 1
   263   356   362 1
   264   188   563 1
   265   438   500 1
   266   438   472 1
   267   438   477 1
   268   191   370 1
   269   191   373 1
   270   337   370 1
   271   337   343 1
   272   193   270 1
   273   193   274 1
   274   193   288 1
   275   193   199 1
   276   193   272 1
   277   193   294 1
   278   207   294 1
   279   218   292 1
   280   193   290 1
   281   195   285 1
   282   195   292 1
   283   195   268 1
   284   195   198 1
   285   195   275 1
   286   195   277 1
   287   198   265 1
   288   198   275 1
   289   198   277 1
   290   198   281 1
   291   198   283 1
   292   196   286 1
   293   196   291 1
   294   196   197 1
   295   196   267 1
   296   196   276 1
   297   196   278 1
   298   297   311 1
   299   199   264 1
   300   199   274 1
   301   199   280 1
   302   199   272 1
   303   199   292 1
   304   200   291 1
   305   200   263 1
   306   200   271 1
   307   200   273 1
   308   200   279 1
   309   201   252 1
   310   252   641 1
   311   202   251 1
   312   212   239 1
   313   239  1002 1
   314   203   254 1
   315   244   254 1
   316   244   250 1
   317   204  1021 1
   318   205   257 1
   319   247   281 1
   320   206   256 1
   321   228   232 1
   322   228   266 1
   323   232   237 1
   324   232   236 1
   325   228   267 1
   326   209   238 1
   327   227   268 1
   328   227   265 1
   329   227   231 1
   330   210   237 1
   331   211   240 1
   332   213   234 1
   333   226   230 1
   334   226   264 1
   335   230   234 1
   336   226   270 1
   337   230   240 1
   338   214   236 1
   339   236   622 1
   340   215   643 1
   341   600   643 1
   342   216   259 1
   343   217   291 1
   344   303   307 1
   345   304   313 1
   346   307   313 1
   347   307   311 1
   348   313  1080 1
   349   243   249 1
   350   219   260 1
   351   243   255 1
   352   255   260 1
   353   255  1022 1
   354   224   262 1
   355   249   283 1
   356   220   260 1
   357   221   261 1
   358   222   261 1
   359   223   262 1
   360   225   263 1
   361   225   269 1
   362   225   229 1
   363   233   261 1
   364   229   239 1
   365   233  1008 1
   366   979  1008 1
   367   229   233 1
   368   231   238 1
   369   235   262 1
   370   231   235 1
   371   237   619 1
   372   619   646 1
   373   245   286 1
   374   245   305 1
   375   245   279 1
   376   246   280 1
   377   246   285 1
   378   246   308 1
   379   250   288 1
   380   253   256 1
   381   258   259 1
   382   295   310 1
   383   301   306 1
   384   306   310 1
   385   310   315 1
   386   306   316 1
   387   296   312 1
   388   298   315 1
   389   299   316 1
   390   300   314 1
   391   305   315 1
   392   302   309 1
   393   305   309 1
   394   309   316 1
   395   311   698 1
   396  1080  1460 1
   397   312   692 1
   398   314  1076 1
   399  1014  1048 1
   400  1014  1076 1
   401  1014  1053 1
   402   318   324 1
   403   321   324 1
   404   324   332 1
   405   324   335 1
   406   318   320 1
   407   321   327 1
   408   321   329 1
   409   321   331 1
   410   320   326 1
   411   336   350 1
   412   341   350 1
   413   350   382 1
   414   350   756 1
   415   322   330 1
   416   322   328 1
   417   322   333 1
   418  1148  1523 1
   419  1523  1529 1
   420   372   378 1
   421   338   347 1
   422   338   372 1
   423   338   381 1
   424   340   349 1
   425   340  1152 1
   426  1144  1152 1
   427  1152  1489 1
   428   346   371 1
   429   358   364 1
   430   358   369 1
   431   358   365 1
   432   352   358 1
   433   353   356 1
   434   353   360 1
   435   351   353 1
   436   351   354 1
   437   351   355 1
   438   352   354 1
   439   352   357 1
   440   354   361 1
   441   355   357 1
   442   355   363 1
   443   357   367 1
   444   353   359 1
   445   371   377 1
   446   374   384 1
   447   375   383 1
   448   376   384 1
   449   384   721 1
   450   380   755 1
   451   730   755 1
   452   755   761 1
   453   418   422 1
   454   385   480 1
   455   385   466 1
   456   391   466 1
   457   391   472 1
   458   385   391 1
   459   385   462 1
   460   385   464 1
   461   391   456 1
   462   391   464 1
   463   418   456 1
   464   418   462 1
   465   385   482 1
   466   385   486 1
   467   385   581 1
   468   391   484 1
   469   386   392 1
   470   386   463 1
   471   386   481 1
   472   386   461 1
   473   386   465 1
   474   386   479 1
   475   386   485 1
   476   387   460 1
   477   387   467 1
   478   387   469 1
   479   387   477 1
   480   387   484 1
   481   410   484 1
   482   387   390 1
   483   388   470 1
   484   388   478 1
   485   388   389 1
   486   388   459 1
   487   388   483 1
   488   388   468 1
   489   389   470 1
   490   389   458 1
   491   389   474 1
   492   389   476 1
   493   389   468 1
   494   390   467 1
   495   390   469 1
   496   390   677 1
   497   578   677 1
   498   578   584 1
   499   578   655 1
   500   578   657 1
   501   390   473 1
   502   578   673 1
   503   390   457 1
   504   390   475 1
   505   390   578 1
   506   441   475 1
   507   441   671 1
   508   578   671 1
   509   578   653 1
   510   392   463 1
   511   392   483 1
   512   409   483 1
   513   392   471 1
   514   392   465 1
   515   400   485 1
   516   392   455 1
   517   393   444 1
   518   443   450 1
   519   394   443 1
   520   433   443 1
   521   403   432 1
   522   395   446 1
   523   396  1213 1
   524  1213  1216 1
   525   416   454 1
   526   427   454 1
   527   397   449 1
   528   398   448 1
   529   581   668 1
   530   581   662 1
   531   399   486 1
   532   486   581 1
   533   581   666 1
   534   581   650 1
   535   581   660 1
   536   482   632 1
   537   423   427 1
   538   401   430 1
   539   423   430 1
   540   424   428 1
   541   420   458 1
   542   402   429 1
   543   420   424 1
   544   420   459 1
   545   424   429 1
   546  1190  1200 1
   547   404   431 1
   548   431  1194 1
   549  1173  1194 1
   550  1190  1194 1
   551   405   426 1
   552   406   428 1
   553   434   440 1
   554   411   452 1
   555   419   460 1
   556   419   423 1
   557   419   457 1
   558   412   452 1
   559   413   453 1
   560   417   421 1
   561   417   461 1
   562   417   455 1
   563   414   453 1
   564   421   425 1
   565   425  1200 1
   566   425   453 1
   567   421   431 1
   568   422   432 1
   569   422   426 1
   570   435   441 1
   571   447   452 1
   572   435   447 1
   573   435  1405 1
   574   447  1214 1
   575  1405  1408 1
   576   436   442 1
   577   436   446 1
   578   436   640 1
   579   442   480 1
   580   442   668 1
   581   437   478 1
   582   497   501 1
   583   497   507 1
   584   437   471 1
   585   437   497 1
   586   635   642 1
   587   439   473 1
   588   439   625 1
   589   439   673 1
   590   449   625 1
   591   625   635 1
   592   440   474 1
   593   632   666 1
   594   444   626 1
   595   626   632 1
   596   445   448 1
   597   509   511 1
   598   509   514 1
   599   509   515 1
   600   514   522 1
   601   514   525 1
   602   514   520 1
   603   515   526 1
   604   501   508 1
   605   494   501 1
   606   502   507 1
   607   487   502 1
   608   488   504 1
   609   489   503 1
   610   495   499 1
   611   499   503 1
   612   499   505 1
   613   547   549 1
   614   547   555 1
   615   490   507 1
   616   491   508 1
   617   493   498 1
   618   498   508 1
   619   498   502 1
   620   492   506 1
   621   496   505 1
   622   505  1272 1
   623  1256  1272 1
   624   512   518 1
   625   510   512 1
   626   510   707 1
   627   701   707 1
   628   707   718 1
   629   701   706 1
   630   512   703 1
   631   701   703 1
   632   510   516 1
   633   516   524 1
   634   513   519 1
   635   513   516 1
   636   513   521 1
   637   513   523 1
   638   516   527 1
   639   528   542 1
   640   517   703 1
   641   528   733 1
   642   532   541 1
   643   532  1344 1
   644   529   535 1
   645   529   562 1
   646   546   553 1
   647   533   542 1
   648   542   574 1
   649   564   570 1
   650   538   563 1
   651   541   571 1
   652   541  1344 1
   653   543   546 1
   654   545   548 1
   655   543   545 1
   656   545   551 1
   657   545   552 1
   658   543   547 1
   659   544   546 1
   660   550   557 1
   661   544   549 1
   662   544   550 1
   663   549   559 1
   664   550   556 1
   665   550   561 1
   666   548   554 1
   667   548   558 1
   668   548   560 1
   669   563   569 1
   670   566   576 1
   671   575   754 1
   672   721   754 1
   673   567   575 1
   674   575   757 1
   675   721   727 1
   676   568   576 1
   677   733   763 1
   678   724   733 1
   679   724  1536 1
   680   733  1536 1
   681  1528  1536 1
   682   577   654 1
   683   577   672 1
   684   577   583 1
   685   577   656 1
   686   577   658 1
   687   577   678 1
   688   591   678 1
   689   577   674 1
   690   579   676 1
   691   579   652 1
   692   579   669 1
   693   579   582 1
   694   579   659 1
   695   579   661 1
   696   593   622 1
   697   616   620 1
   698   580   662 1
   699   580   670 1
   700   580   581 1
   701   580   651 1
   702   580   660 1
   703   612   616 1
   704   612   650 1
   705   612   651 1
   706   616   621 1
   707   580   675 1
   708   582   659 1
   709   582   661 1
   710   582   649 1
   711   582   665 1
   712   582   667 1
   713   610   614 1
   714   610   654 1
   715   583   664 1
   716   583   676 1
   717   583   648 1
   718   610   648 1
   719   583   656 1
   720   583   658 1
   721   584   647 1
   722   584   655 1
   723   584   657 1
   724   584   663 1
   725   584   675 1
   726   601   675 1
   727   585   636 1
   728   586   635 1
   729   596   623 1
   730   623  1386 1
   731   587   638 1
   732   628   634 1
   733   628   638 1
   734   634   672 1
   735   588  1405 1
   736   607   646 1
   737   608   646 1
   738   589   641 1
   739   631   665 1
   740   590   640 1
   741   598   620 1
   742   592   677 1
   743   594   621 1
   744   595   624 1
   745   597   618 1
   746   602   676 1
   747   702   704 1
   748   702   708 1
   749   708   716 1
   750   708   719 1
   751   704   710 1
   752   705   708 1
   753   627   633 1
   754   603   644 1
   755   627   639 1
   756   639   644 1
   757   705   711 1
   758   705   713 1
   759   705   715 1
   760   639  1406 1
   761   633   667 1
   762   604   644 1
   763   613   623 1
   764   617  1392 1
   765   605   645 1
   766   613   617 1
   767   617   645 1
   768   606   645 1
   769   609   647 1
   770   609   653 1
   771   609   613 1
   772   611   652 1
   773   615   619 1
   774   611   615 1
   775   615   622 1
   776   611   649 1
   777   614   618 1
   778   614   624 1
   779   629   670 1
   780   629   689 1
   781   629   663 1
   782   630   664 1
   783   630   692 1
   784   630   669 1
   785   637   640 1
   786   679   694 1
   787   682   699 1
   788   680   696 1
   789   687   691 1
   790   706   714 1
   791   706   717 1
   792   681   695 1
   793   691   695 1
   794   706   712 1
   795   691   697 1
   796   683   700 1
   797   693   700 1
   798   686   693 1
   799   689   693 1
   800   689   699 1
   801   684   698 1
   802   698  1460 1
   803  1351  1432 1
   804  1398  1432 1
   805  1398  1460 1
   806  1351  1426 1
   807  1351  1416 1
   808  1351  1424 1
   809  1398  1437 1
   810  1351  1444 1
   811   685   690 1
   812   690   694 1
   813   690   700 1
   814   694   699 1
   815   688   697 1
   816   697  1464 1
   817   720   734 1
   818   725   734 1
   819   734   766 1
   820   722   731 1
   821   722   756 1
   822   722   765 1
   823   756   762 1
   824   742   748 1
   825   742   749 1
   826   742   753 1
   827   735   738 1
   828   735   739 1
   829   736   738 1
   830   736   741 1
   831   736   742 1
   832   738   745 1
   833   739   741 1
   834   741   751 1
   835   735   737 1
   836   739   747 1
   837   737   740 1
   838   737   744 1
   839   737   743 1
   840   740   752 1
   841   740   746 1
   842   740   750 1
   843   758   768 1
   844   759   767 1
   845   760   768 1
   846   965  1052 1
   847   769   775 1
   848   769   850 1
   849   965  1046 1
   850   769   846 1
   851   769   848 1
   852   769   864 1
   853   769   866 1
   854   769   870 1
   855   769   965 1
   856   870   965 1
   857   965  1050 1
   858   965  1034 1
   859   965  1044 1
   860   866  1016 1
   861   770   847 1
   862   770   776 1
   863   770   865 1
   864   770   845 1
   865   770   849 1
   866   770   863 1
   867   770   869 1
   868   771   844 1
   869   771   851 1
   870   771   853 1
   871   771   861 1
   872   771   868 1
   873   794   868 1
   874   771   774 1
   875   772   854 1
   876   772   773 1
   877   772   843 1
   878   772   867 1
   879   793   867 1
   880   772   862 1
   881   772   852 1
   882   784   869 1
   883   773   854 1
   884   773   842 1
   885   773   858 1
   886   773   860 1
   887   824   858 1
   888   773   852 1
   889   774   851 1
   890   774   853 1
   891   774  1061 1
   892   774   857 1
   893   774   841 1
   894   774   859 1
   895   825   859 1
   896   825  1055 1
   897   774   962 1
   898   822   884 1
   899   775   850 1
   900   775   856 1
   901   822   856 1
   902   775   840 1
   903   775   848 1
   904   775   868 1
   905   822   861 1
   906   776   847 1
   907   821   881 1
   908   776   867 1
   909   776   855 1
   910   821   855 1
   911   821   862 1
   912   776   849 1
   913   776   839 1
   914   777   828 1
   915   827   834 1
   916   778   827 1
   917   817   827 1
   918   787   816 1
   919   779   830 1
   920   807   814 1
   921   800   838 1
   922   807   811 1
   923   811   838 1
   924   781   833 1
   925   782   832 1
   926   783   870 1
   927   785   814 1
   928   808   812 1
   929   804   842 1
   930   786   813 1
   931   804   808 1
   932   804   843 1
   933   808   813 1
   934   813  1195 1
   935   788   815 1
   936   789   810 1
   937   790   812 1
   938   812  1198 1
   939   818   824 1
   940   791  1219 1
   941   818  1218 1
   942  1176  1219 1
   943  1211  1218 1
   944  1218  1219 1
   945   792   835 1
   946   834   835 1
   947   795   836 1
   948   803   844 1
   949   803   807 1
   950   803   841 1
   951   796   836 1
   952   797   837 1
   953   801   805 1
   954   801   845 1
   955   801   839 1
   956   798   837 1
   957   799   838 1
   958   914   923 1
   959   914   948 1
   960   914   957 1
   961   806   816 1
   962   806   810 1
   963   802   806 1
   964   802   840 1
   965   802   846 1
   966   805   809 1
   967   809   837 1
   968   805   815 1
   969   819   825 1
   970   831   836 1
   971   819   831 1
   972   820   826 1
   973   820   830 1
   974   820  1024 1
   975   826  1052 1
   976   826   864 1
   977  1019  1026 1
   978   823   857 1
   979   823  1009 1
   980   823  1057 1
   981   833  1009 1
   982  1009  1019 1
   983  1016  1050 1
   984   828  1010 1
   985  1010  1016 1
   986  1010  1410 1
   987  1410  1411 1
   988   828  1217 1
   989   927   930 1
   990   929   932 1
   991   927   929 1
   992   929   935 1
   993   929   936 1
   994   927   931 1
   995   893   895 1
   996   893   898 1
   997   893   899 1
   998   898   906 1
   999   898   909 1
  1000   898   904 1
  1001   899   910 1
  1002   886   891 1
  1003   871   886 1
  1004   873   887 1
  1005   879   883 1
  1006   883   887 1
  1007   887  1274 1
  1008   883   889 1
  1009   931   933 1
  1010   881   885 1
  1011   931   939 1
  1012   874   891 1
  1013   881   891 1
  1014   875   892 1
  1015   877   882 1
  1016   882   892 1
  1017   882   886 1
  1018   876   890 1
  1019   885   892 1
  1020   878   885 1
  1021   880   889 1
  1022   894   896 1
  1023   894  1091 1
  1024   896   902 1
  1025   896  1087 1
  1026  1085  1087 1
  1027  1085  1091 1
  1028  1085  1090 1
  1029  1091  1102 1
  1030   894   900 1
  1031   900   908 1
  1032   897   903 1
  1033   897   900 1
  1034   897   905 1
  1035   897   907 1
  1036   900   911 1
  1037   901  1087 1
  1038   912   926 1
  1039   912  1117 1
  1040   916   925 1
  1041   913   946 1
  1042   913   919 1
  1043   930   937 1
  1044   917   926 1
  1045   926   958 1
  1046   926  1332 1
  1047   948   954 1
  1048   922   947 1
  1049   925   955 1
  1050   925  1299 1
  1051   928   930 1
  1052   928   933 1
  1053   928   934 1
  1054   933   943 1
  1055   934   940 1
  1056   934   941 1
  1057   934   945 1
  1058   932   938 1
  1059   932   942 1
  1060   932   944 1
  1061   959  1138 1
  1062  1105  1138 1
  1063   951   959 1
  1064   959  1141 1
  1065  1105  1111 1
  1066   956  1331 1
  1067  1306  1331 1
  1068  1117  1147 1
  1069  1117  1491 1
  1070  1108  1117 1
  1071   961  1056 1
  1072   967  1048 1
  1073   967  1060 1
  1074   967  1032 1
  1075   961   967 1
  1076   961  1038 1
  1077   961  1040 1
  1078   961  1042 1
  1079   961  1062 1
  1080   967  1040 1
  1081   967  1042 1
  1082   975  1062 1
  1083   961  1058 1
  1084   962  1061 1
  1085   962   968 1
  1086   962  1039 1
  1087   962  1041 1
  1088   993  1031 1
  1089   962  1057 1
  1090   993   997 1
  1091   962  1055 1
  1092   962  1037 1
  1093   993  1037 1
  1094   963  1060 1
  1095   963  1036 1
  1096   963  1053 1
  1097   963   966 1
  1098   963  1043 1
  1099   963  1045 1
  1100   966  1043 1
  1101   966  1045 1
  1102   966  1049 1
  1103   966  1033 1
  1104   966  1051 1
  1105   964  1046 1
  1106   964  1054 1
  1107   964   965 1
  1108   964  1035 1
  1109   964  1044 1
  1110   964  1059 1
  1111   968  1031 1
  1112   968  1039 1
  1113   968  1041 1
  1114   968  1047 1
  1115   968  1059 1
  1116   985  1059 1
  1117   969  1020 1
  1118  1020  1409 1
  1119   970  1019 1
  1120   980  1007 1
  1121   971  1022 1
  1122  1012  1018 1
  1123  1012  1022 1
  1124  1018  1056 1
  1125   973  1025 1
  1126   991  1030 1
  1127   992  1030 1
  1128   974  1024 1
  1129   982  1004 1
  1130  1004  1390 1
  1131   976  1061 1
  1132   995  1036 1
  1133   999  1003 1
  1134   977  1006 1
  1135   995   999 1
  1136   999  1006 1
  1137   995  1033 1
  1138  1000  1004 1
  1139  1005  1387 1
  1140   978  1005 1
  1141  1000  1005 1
  1142   981  1002 1
  1143   994   998 1
  1144   994  1032 1
  1145   994  1038 1
  1146   983  1411 1
  1147  1368  1411 1
  1148   984  1027 1
  1149   986  1060 1
  1150  1086  1088 1
  1151  1086  1092 1
  1152  1092  1100 1
  1153  1092  1103 1
  1154  1088  1094 1
  1155   987  1028 1
  1156   988  1028 1
  1157  1011  1017 1
  1158  1011  1023 1
  1159   989  1029 1
  1160   990  1029 1
  1161   996  1034 1
  1162   996  1035 1
  1163   996  1000 1
  1164   997  1007 1
  1165   997  1001 1
  1166  1001  1029 1
  1167   998  1002 1
  1168   998  1008 1
  1169  1003  1030 1
  1170  1077  1084 1
  1171  1013  1054 1
  1172  1013  1073 1
  1173  1070  1077 1
  1174  1073  1077 1
  1175  1073  1083 1
  1176  1013  1047 1
  1177  1015  1049 1
  1178  1017  1051 1
  1179  1089  1092 1
  1180  1023  1028 1
  1181  1089  1095 1
  1182  1089  1097 1
  1183  1089  1099 1
  1184  1026  1027 1
  1185  1063  1078 1
  1186  1066  1083 1
  1187  1064  1080 1
  1188  1065  1079 1
  1189  1079  1466 1
  1190  1067  1084 1
  1191  1069  1074 1
  1192  1074  1078 1
  1193  1074  1084 1
  1194  1078  1083 1
  1195  1068  1082 1
  1196  1071  1075 1
  1197  1090  1098 1
  1198  1090  1101 1
  1199  1075  1079 1
  1200  1090  1096 1
  1201  1075  1081 1
  1202  1072  1081 1
  1203  1104  1118 1
  1204  1109  1118 1
  1205  1118  1150 1
  1206  1118  1524 1
  1207  1106  1115 1
  1208  1106  1140 1
  1209  1106  1149 1
  1210  1140  1146 1
  1211  1126  1132 1
  1212  1126  1133 1
  1213  1126  1137 1
  1214  1119  1122 1
  1215  1119  1123 1
  1216  1120  1122 1
  1217  1120  1125 1
  1218  1120  1126 1
  1219  1122  1129 1
  1220  1123  1125 1
  1221  1125  1135 1
  1222  1123  1131 1
  1223  1119  1121 1
  1224  1114  1139 1
  1225  1139  1145 1
  1226  1121  1124 1
  1227  1121  1128 1
  1228  1121  1127 1
  1229  1124  1136 1
  1230  1124  1130 1
  1231  1124  1134 1
  1232  1498  1523 1
  1233  1142  1152 1
  1234  1143  1151 1
  1235  1153  1234 1
  1236  1349  1430 1
  1237  1153  1230 1
  1238  1153  1248 1
  1239  1153  1250 1
  1240  1153  1254 1
  1241  1153  1349 1
  1242  1210  1248 1
  1243  1210  1436 1
  1244  1250  1400 1
  1245  1254  1349 1
  1246  1349  1434 1
  1247  1349  1436 1
  1248  1400  1434 1
  1249  1349  1418 1
  1250  1153  1159 1
  1251  1153  1232 1
  1252  1349  1428 1
  1253  1154  1229 1
  1254  1154  1231 1
  1255  1154  1249 1
  1256  1154  1233 1
  1257  1154  1253 1
  1258  1168  1253 1
  1259  1154  1160 1
  1260  1154  1247 1
  1261  1159  1234 1
  1262  1159  1224 1
  1263  1206  1268 1
  1264  1155  1235 1
  1265  1155  1245 1
  1266  1155  1252 1
  1267  1159  1240 1
  1268  1159  1252 1
  1269  1178  1252 1
  1270  1206  1240 1
  1271  1206  1245 1
  1272  1159  1232 1
  1273  1155  1228 1
  1274  1155  1237 1
  1275  1155  1158 1
  1276  1156  1238 1
  1277  1156  1157 1
  1278  1156  1227 1
  1279  1156  1251 1
  1280  1177  1251 1
  1281  1156  1246 1
  1282  1156  1236 1
  1283  1157  1238 1
  1284  1157  1226 1
  1285  1157  1244 1
  1286  1157  1236 1
  1287  1157  1242 1
  1288  1158  1235 1
  1289  1158  1241 1
  1290  1158  1225 1
  1291  1158  1237 1
  1292  1158  1243 1
  1293  1158  1445 1
  1294  1209  1243 1
  1295  1209  1439 1
  1296  1158  1346 1
  1297  1160  1251 1
  1298  1160  1239 1
  1299  1160  1231 1
  1300  1182  1221 1
  1301  1160  1233 1
  1302  1160  1223 1
  1303  1263  1267 1
  1304  1264  1273 1
  1305  1161  1212 1
  1306  1162  1211 1
  1307  1201  1211 1
  1308  1171  1200 1
  1309  1163  1214 1
  1310  1191  1198 1
  1311  1165  1217 1
  1312  1191  1195 1
  1313  1166  1216 1
  1314  1167  1254 1
  1315  1169  1198 1
  1316  1315  1323 1
  1317  1315  1317 1
  1318  1188  1226 1
  1319  1170  1197 1
  1320  1174  1196 1
  1321  1188  1192 1
  1322  1188  1227 1
  1323  1192  1196 1
  1324  1192  1197 1
  1325  1189  1193 1
  1326  1172  1199 1
  1327  1189  1199 1
  1328  1202  1208 1
  1329  1179  1220 1
  1330  1180  1220 1
  1331  1181  1221 1
  1332  1183  1222 1
  1333  1184  1222 1
  1334  1195  1222 1
  1335  1185  1229 1
  1336  1193  1221 1
  1337  1185  1223 1
  1338  1185  1189 1
  1339  1186  1190 1
  1340  1186  1224 1
  1341  1186  1230 1
  1342  1187  1191 1
  1343  1187  1225 1
  1344  1187  1228 1
  1345  1203  1209 1
  1346  1215  1220 1
  1347  1203  1215 1
  1348  1204  1214 1
  1349  1204  1408 1
  1350  1204  1210 1
  1351  1205  1265 1
  1352  1205  1239 1
  1353  1205  1246 1
  1354  1403  1410 1
  1355  1207  1241 1
  1356  1207  1393 1
  1357  1207  1441 1
  1358  1217  1393 1
  1359  1393  1403 1
  1360  1208  1242 1
  1361  1277  1279 1
  1362  1277  1282 1
  1363  1282  1288 1
  1364  1282  1290 1
  1365  1277  1283 1
  1366  1282  1293 1
  1367  1394  1400 1
  1368  1212  1394 1
  1369  1259  1276 1
  1370  1261  1266 1
  1371  1266  1276 1
  1372  1270  1275 1
  1373  1255  1270 1
  1374  1266  1270 1
  1375  1257  1271 1
  1376  1265  1269 1
  1377  1317  1327 1
  1378  1258  1275 1
  1379  1265  1275 1
  1380  1260  1274 1
  1381  1262  1269 1
  1382  1267  1271 1
  1383  1267  1273 1
  1384  1312  1318 1
  1385  1318  1324 1
  1386  1318  1325 1
  1387  1318  1329 1
  1388  1269  1276 1
  1389  1312  1314 1
  1390  1312  1317 1
  1391  1278  1280 1
  1392  1278  1475 1
  1393  1281  1287 1
  1394  1278  1284 1
  1395  1281  1284 1
  1396  1281  1289 1
  1397  1281  1291 1
  1398  1284  1292 1
  1399  1284  1295 1
  1400  1492  1501 1
  1401  1280  1286 1
  1402  1280  1471 1
  1403  1469  1471 1
  1404  1469  1475 1
  1405  1469  1474 1
  1406  1475  1486 1
  1407  1283  1294 1
  1408  1300  1309 1
  1409  1285  1471 1
  1410  1296  1310 1
  1411  1296  1501 1
  1412  1501  1531 1
  1413  1298  1307 1
  1414  1298  1341 1
  1415  1298  1332 1
  1416  1301  1310 1
  1417  1310  1342 1
  1418  1332  1338 1
  1419  1313  1316 1
  1420  1311  1315 1
  1421  1311  1313 1
  1422  1311  1314 1
  1423  1313  1319 1
  1424  1313  1320 1
  1425  1314  1321 1
  1426  1309  1339 1
  1427  1316  1322 1
  1428  1316  1326 1
  1429  1316  1328 1
  1430  1334  1344 1
  1431  1336  1344 1
  1432  1335  1343 1
  1433  1343  1522 1
  1434  1343  1525 1
  1435  1489  1522 1
  1436  1489  1495 1
  1437  1345  1351 1
  1438  1345  1426 1
  1439  1345  1422 1
  1440  1345  1424 1
  1441  1345  1440 1
  1442  1345  1442 1
  1443  1345  1446 1
  1444  1346  1423 1
  1445  1346  1352 1
  1446  1346  1441 1
  1447  1377  1381 1
  1448  1346  1439 1
  1449  1346  1445 1
  1450  1346  1421 1
  1451  1346  1425 1
  1452  1377  1415 1
  1453  1377  1421 1
  1454  1347  1420 1
  1455  1347  1437 1
  1456  1347  1427 1
  1457  1347  1429 1
  1458  1347  1444 1
  1459  1370  1444 1
  1460  1347  1350 1
  1461  1348  1430 1
  1462  1348  1349 1
  1463  1348  1419 1
  1464  1352  1423 1
  1465  1397  1457 1
  1466  1348  1438 1
  1467  1348  1443 1
  1468  1352  1431 1
  1469  1352  1443 1
  1470  1369  1443 1
  1471  1397  1431 1
  1472  1397  1438 1
  1473  1348  1428 1
  1474  1352  1415 1
  1475  1352  1425 1
  1476  1350  1427 1
  1477  1350  1429 1
  1478  1350  1433 1
  1479  1350  1417 1
  1480  1350  1435 1
  1481  1401  1435 1
  1482  1372  1412 1
  1483  1353  1404 1
  1484  1354  1403 1
  1485  1355  1406 1
  1486  1396  1402 1
  1487  1396  1406 1
  1488  1402  1440 1
  1489  1376  1414 1
  1490  1357  1409 1
  1491  1358  1408 1
  1492  1366  1388 1
  1493  1359  1446 1
  1494  1360  1445 1
  1495  1379  1420 1
  1496  1379  1383 1
  1497  1361  1390 1
  1498  1379  1417 1
  1499  1362  1389 1
  1500  1363  1392 1
  1501  1364  1391 1
  1502  1382  1392 1
  1503  1365  1386 1
  1504  1378  1382 1
  1505  1378  1416 1
  1506  1382  1386 1
  1507  1378  1422 1
  1508  1395  1401 1
  1509  1371  1412 1
  1510  1395  1407 1
  1511  1407  1412 1
  1512  1373  1413 1
  1513  1374  1413 1
  1514  1375  1414 1
  1515  1490  1499 1
  1516  1490  1524 1
  1517  1524  1530 1
  1518  1490  1533 1
  1519  1384  1388 1
  1520  1380  1384 1
  1521  1380  1418 1
  1522  1380  1419 1
  1523  1384  1389 1
  1524  1381  1385 1
  1525  1385  1413 1
  1526  1381  1391 1
  1527  1383  1387 1
  1528  1387  1414 1
  1529  1383  1390 1
  1530  1399  1433 1
  1531  1503  1506 1
  1532  1507  1509 1
  1533  1505  1508 1
  1534  1507  1515 1
  1535  1505  1512 1
  1536  1503  1505 1
  1537  1503  1507 1
  1538  1505  1511 1
  1539  1455  1459 1
  1540  1474  1482 1
  1541  1474  1485 1
  1542  1449  1463 1
  1543  1459  1463 1
  1544  1474  1480 1
  1545  1459  1465 1
  1546  1457  1461 1
  1547  1447  1462 1
  1548  1450  1467 1
  1549  1457  1467 1
  1550  1462  1467 1
  1551  1448  1464 1
  1552  1451  1468 1
  1553  1453  1458 1
  1554  1458  1468 1
  1555  1458  1462 1
  1556  1452  1466 1
  1557  1461  1468 1
  1558  1454  1461 1
  1559  1456  1465 1
  1560  1470  1472 1
  1561  1472  1478 1
  1562  1470  1476 1
  1563  1473  1476 1
  1564  1473  1479 1
  1565  1473  1481 1
  1566  1473  1483 1
  1567  1476  1484 1
  1568  1476  1487 1
  1569  1488  1502 1
  1570  1493  1502 1
  1571  1502  1534 1
  1572  1504  1506 1
  1573  1504  1509 1
  1574  1504  1510 1
  1575  1506  1513 1
  1576  1510  1516 1
  1577  1510  1517 1
  1578  1510  1521 1
  1579  1509  1519 1
  1580  1508  1514 1
  1581  1508  1520 1
  1582  1508  1518 1
  1583  1526  1536 1
  1584  1527  1535 1
