@<TRIPOS>MOLECULE
frame0014
 1536 1584 0 0 0
SMALL
NO_CHARGES

@<TRIPOS>ATOM
      1 Ti1         -2.8554     2.2298    11.2464 Ti        1 MOL       0.0000
      2 Ti2          7.9750     5.1110     1.8816 Ti        1 MOL       0.0000
      3 Ti3          1.2412    -1.7064     9.4264 Ti        1 MOL       0.0000
      4 Ti4          2.7524     7.4557     3.6534 Ti        1 MOL       0.0000
      5 Ti5          1.7539     9.1340     1.7490 Ti        1 MOL       0.0000
      6 Ti6          3.1294    -1.9608    11.3798 Ti        1 MOL       0.0000
      7 Ti7         -1.9062     0.4939     9.3549 Ti        1 MOL       0.0000
      8 Ti8          5.9872     5.4135     3.7290 Ti        1 MOL       0.0000
      9 H1          -2.3536     6.1269    11.0269 H         1 MOL       0.0000
     10 H2           8.7838     1.2049     2.2023 H         1 MOL       0.0000
     11 H3          -6.8153     1.4731    10.8640 H         1 MOL       0.0000
     12 H4          11.3572     7.1153     2.0822 H         1 MOL       0.0000
     13 H5           4.1051    -5.9953    10.9939 H         1 MOL       0.0000
     14 H6          -2.3047     8.5441     2.0711 H         1 MOL       0.0000
     15 H7          -2.3867     0.4312    12.9709 H         1 MOL       0.0000
     16 H8           6.0995     4.8683     0.1817 H         1 MOL       0.0000
     17 H9           3.6394    -2.6279     5.8687 H         1 MOL       0.0000
     18 H10          1.0290     9.2927     7.2723 H         1 MOL       0.0000
     19 H11         -5.9789     3.8825     8.9990 H         1 MOL       0.0000
     20 H12         10.7298     3.0266     4.1876 H         1 MOL       0.0000
     21 H13         -3.6778     2.4351     5.6652 H         1 MOL       0.0000
     22 H14         -1.3462    10.9619     4.1022 H         1 MOL       0.0000
     23 H15          2.1461    12.2368     2.6045 H         1 MOL       0.0000
     24 H16          8.6260    -0.8139     3.4048 H         1 MOL       0.0000
     25 H17          4.8451     7.1358     2.3148 H         1 MOL       0.0000
     26 H18          0.1606     0.1420    10.7200 H         1 MOL       0.0000
     27 H19          7.3642    -0.0259     9.7695 H         1 MOL       0.0000
     28 H20          5.8831    -0.4950    10.5168 H         1 MOL       0.0000
     29 H21          7.9383     4.4077     8.6706 H         1 MOL       0.0000
     30 H22          7.3686     4.7663     7.0520 H         1 MOL       0.0000
     31 H23          6.8754    -4.9808     9.5794 H         1 MOL       0.0000
     32 H24          5.5962    -3.8802    10.0368 H         1 MOL       0.0000
     33 C1           8.5531     4.3697     4.7451 C         1 MOL       0.0000
     34 C2          -3.8160     2.4911     8.3994 C         1 MOL       0.0000
     35 C3           3.8218    -2.7171     8.5017 C         1 MOL       0.0000
     36 C4           0.8163     9.4262     4.6128 C         1 MOL       0.0000
     37 C5           9.4491     3.7654     5.7403 C         1 MOL       0.0000
     38 C6          -4.7479     3.1162     7.4223 C         1 MOL       0.0000
     39 C7           4.7619    -3.3315     7.5545 C         1 MOL       0.0000
     40 C8          -0.0735    10.0730     5.6125 C         1 MOL       0.0000
     41 C9           9.2003     3.8403     7.1467 C         1 MOL       0.0000
     42 C10         -4.5315     2.9962     6.0343 C         1 MOL       0.0000
     43 C11          5.8914    -4.0918     8.0076 C         1 MOL       0.0000
     44 C12         -1.1682    10.8460     5.1676 C         1 MOL       0.0000
     45 C13          0.1810     9.9023     6.9674 C         1 MOL       0.0000
     46 C14          4.5142    -3.1993     6.1706 C         1 MOL       0.0000
     47 C15         10.5828     3.0664     5.2646 C         1 MOL       0.0000
     48 C16         -5.8480     3.8086     7.9210 C         1 MOL       0.0000
     49 C17          8.7648     1.2840     0.0582 C         1 MOL       0.0000
     50 C18          2.2951    13.0756     0.0832 C         1 MOL       0.0000
     51 C19          6.6143    -0.0189    13.0272 C         1 MOL       0.0000
     52 C20         -6.7440     1.5235    13.0078 C         1 MOL       0.0000
     53 C21          3.4992     5.1125     5.6180 C         1 MOL       0.0000
     54 C22         -1.2569    -1.9819     7.5361 C         1 MOL       0.0000
     55 C23          3.9940    -4.3272    13.1300 C         1 MOL       0.0000
     56 C24          2.2024    11.6421     0.0457 C         1 MOL       0.0000
     57 C25          5.3165    -0.6357    13.0740 C         1 MOL       0.0000
     58 C26         -5.3417     1.9379    13.0323 C         1 MOL       0.0000
     59 C27          8.8042     0.6149     1.2879 C         1 MOL       0.0000
     60 C28         -2.3426     6.7153    11.9408 C         1 MOL       0.0000
     61 C29         -4.0954     7.8789     1.0761 C         1 MOL       0.0000
     62 C30         -7.3768     1.2938    11.7793 C         1 MOL       0.0000
     63 C31          7.3089     0.2494    11.7938 C         1 MOL       0.0000
     64 C32         -2.8062     8.3591     1.1253 C         1 MOL       0.0000
     65 C33          4.1467    -6.5225    11.9429 C         1 MOL       0.0000
     66 C34          8.8259    -0.7862     1.3695 C         1 MOL       0.0000
     67 N1           8.8810    -1.3851     2.6076 N         1 MOL       0.0000
     68 N2           6.7299     0.0665    10.5548 N         1 MOL       0.0000
     69 N3           8.1195     4.4866     7.6780 N         1 MOL       0.0000
     70 N4           6.2224    -4.2500     9.3250 N         1 MOL       0.0000
     71 O1           7.3768     4.7748     5.1109 O         1 MOL       0.0000
     72 O2          -3.0470     1.5403     8.0011 O         1 MOL       0.0000
     73 O3           4.2032    -2.5927     9.7228 O         1 MOL       0.0000
     74 O4           0.7505     9.8559     3.4131 O         1 MOL       0.0000
     75 O5           1.5868     8.4690     4.9992 O         1 MOL       0.0000
     76 O6           2.6513    -2.3487     8.0962 O         1 MOL       0.0000
     77 O7           8.9650     4.4505     3.5334 O         1 MOL       0.0000
     78 O8          -3.8580     2.9274     9.5991 O         1 MOL       0.0000
     79 O9           6.2924     4.1956     2.5344 O         1 MOL       0.0000
     80 O10         -1.3538     2.0542    10.0994 O         1 MOL       0.0000
     81 O11          7.2312     6.4829     2.9843 O         1 MOL       0.0000
     82 O12         -3.1060     0.3295    10.5921 O         1 MOL       0.0000
     83 O13          1.5006    -2.8784    10.6868 O         1 MOL       0.0000
     84 O14          3.2690     9.0170     2.9149 O         1 MOL       0.0000
     85 O15          2.4545    -0.6169    10.2227 O         1 MOL       0.0000
     86 O16          1.5628     7.2599     2.3975 O         1 MOL       0.0000
     87 O17          4.7203     4.9326     5.2637 O         1 MOL       0.0000
     88 O18         -1.9146    -0.9469     7.9143 O         1 MOL       0.0000
     89 O19          3.8718    -3.7326    11.9889 O         1 MOL       0.0000
     90 O20          2.1193    10.9406     1.1409 O         1 MOL       0.0000
     91 O21          4.6739    -0.9445    11.9838 O         1 MOL       0.0000
     92 O22         -0.1167     9.1049     1.0808 O         1 MOL       0.0000
     93 O23         -0.0951    -2.2764     7.9939 O         1 MOL       0.0000
     94 O24          2.7573     6.0334     5.1246 O         1 MOL       0.0000
     95 O25          9.4121     6.1301     1.1270 O         1 MOL       0.0000
     96 O26         -4.7422     2.1697    11.9148 O         1 MOL       0.0000
     97 O27          8.6166     3.3758     1.1564 O         1 MOL       0.0000
     98 O28         -2.4740     3.9521    11.9961 O         1 MOL       0.0000
     99 O29          4.4842     6.5871     3.0354 O         1 MOL       0.0000
    100 O30         -0.2177    -0.4167    10.0165 O         1 MOL       0.0000
    101 O31          6.9383     5.3620     0.1026 O         1 MOL       0.0000
    102 O32         -2.2643     1.3980    13.0309 O         1 MOL       0.0000
    103 H25          3.7154     1.4833     8.5413 H         1 MOL       0.0000
    104 H26         -6.6112    10.5703     6.1861 H         1 MOL       0.0000
    105 H27          4.4502    10.1810     5.6346 H         1 MOL       0.0000
    106 H28          4.7083     3.0217     6.8213 H         1 MOL       0.0000
    107 H29          0.0545     3.7432     8.4409 H         1 MOL       0.0000
    108 H30         12.1239    -2.6761     7.0511 H         1 MOL       0.0000
    109 H31          1.3784     1.8377     9.2971 H         1 MOL       0.0000
    110 H32          1.0744     5.3147     6.7621 H         1 MOL       0.0000
    111 H33          5.7925     8.4138     4.5208 H         1 MOL       0.0000
    112 H34          8.2480     8.3115     4.8224 H         1 MOL       0.0000
    113 C35          2.9371     4.2385     6.6751 C         1 MOL       0.0000
    114 C36          1.8236     2.5190     8.5738 C         1 MOL       0.0000
    115 C37          6.2873     9.1461     5.1571 C         1 MOL       0.0000
    116 C38         -1.9229    -2.9843     6.6785 C         1 MOL       0.0000
    117 C39          1.6333     4.4642     7.1479 C         1 MOL       0.0000
    118 C40          3.1413     2.3182     8.1428 C         1 MOL       0.0000
    119 C41          5.5295    10.1515     5.7702 C         1 MOL       0.0000
    120 C42         -7.6871    10.5973     6.0302 C         1 MOL       0.0000
    121 C43          7.6756     9.0899     5.3237 C         1 MOL       0.0000
    122 C44         12.6837    -3.4868     6.5915 C         1 MOL       0.0000
    123 C45          3.6971     3.1744     7.1915 C         1 MOL       0.0000
    124 C46          1.0720     3.5935     8.0827 C         1 MOL       0.0000
    125 N5           5.1741    10.4635     1.2173 N         1 MOL       0.0000
    126 N6           2.0287     2.6099    12.9235 N         1 MOL       0.0000
    127 C47          4.9954    11.1003     0.0281 C         1 MOL       0.0000
    128 C48          1.2579     3.5297    12.2433 C         1 MOL       0.0000
    129 C49          4.3222     2.6861    11.8806 C         1 MOL       0.0000
    130 C50          4.6673    11.0022     2.4907 C         1 MOL       0.0000
    131 C51          6.1227     9.5250     1.0754 C         1 MOL       0.0000
    132 C52          3.1280     1.8349    12.3234 C         1 MOL       0.0000
    133 H35         -0.2442     4.9223    13.0507 H         1 MOL       0.0000
    134 H36          1.5039     3.8665    11.2496 H         1 MOL       0.0000
    135 H37          4.0626     3.4346    11.1268 H         1 MOL       0.0000
    136 H38          4.4645    12.0633     2.3654 H         1 MOL       0.0000
    137 H39          4.8209     3.1894    12.7157 H         1 MOL       0.0000
    138 H40          3.7984    10.4934     2.8560 H         1 MOL       0.0000
    139 H41          5.0397     2.0045    11.4034 H         1 MOL       0.0000
    140 H42          2.7294     1.2939    11.4592 H         1 MOL       0.0000
    141 H43          5.3989    10.8498     3.2724 H         1 MOL       0.0000
    142 H44          6.5836     8.9694     1.8869 H         1 MOL       0.0000
    143 H45          3.4367     1.1080    13.0782 H         1 MOL       0.0000
    144 N7           1.9819     6.5401    12.9492 N         1 MOL       0.0000
    145 C53          0.4618     0.6095     1.6187 C         1 MOL       0.0000
    146 C54          9.3031    -5.5082    10.4475 C         1 MOL       0.0000
    147 O33         13.7350    -0.2695     2.6494 O         1 MOL       0.0000
    148 O34          8.9074    11.6196     1.4318 O         1 MOL       0.0000
    149 O35          1.3685     5.7569    10.3437 O         1 MOL       0.0000
    150 O36          3.9768     6.4479     8.8596 O         1 MOL       0.0000
    151 F1           0.3548     1.9501     2.2999 F         1 MOL       0.0000
    152 F2           9.3210    -3.2359    11.9141 F         1 MOL       0.0000
    153 F3           1.9274     1.3759     0.8435 F         1 MOL       0.0000
    154 F4          -0.2832    -0.2234     4.0014 F         1 MOL       0.0000
    155 F5           8.7764    -4.4079    10.0436 F         1 MOL       0.0000
    156 F6           2.2084     8.1627     8.4596 F         1 MOL       0.0000
    157 S1           7.7169    13.2924     1.3096 S         1 MOL       0.0000
    158 S2           2.5723     6.5007    10.8085 S         1 MOL       0.0000
    159 N8           3.2552     1.5741     3.4145 N         1 MOL       0.0000
    160 N9           1.5101     2.3588     4.4963 N         1 MOL       0.0000
    161 C55          4.2569     1.2284     2.3365 C         1 MOL       0.0000
    162 C56          2.3117     2.5313     3.4100 C         1 MOL       0.0000
    163 C57          3.0352     0.7410     4.5309 C         1 MOL       0.0000
    164 C58          4.1441    -0.1651     1.6771 C         1 MOL       0.0000
    165 C59          2.0016     1.3332     5.2306 C         1 MOL       0.0000
    166 C60          0.1629     2.9511     4.7231 C         1 MOL       0.0000
    167 H46          5.2429     1.3571     2.7923 H         1 MOL       0.0000
    168 H47          4.1253     1.9782     1.5555 H         1 MOL       0.0000
    169 H48          2.1562     3.2636     2.6173 H         1 MOL       0.0000
    170 H49          5.0833    -0.3460     1.1351 H         1 MOL       0.0000
    171 H50          3.6878    -0.0683     4.7748 H         1 MOL       0.0000
    172 H51          0.1040     3.3829     5.7260 H         1 MOL       0.0000
    173 H52         -0.0960     3.6772     3.9466 H         1 MOL       0.0000
    174 H53          3.9944    -1.0027     2.3697 H         1 MOL       0.0000
    175 H54          1.4869     0.9823     6.1219 H         1 MOL       0.0000
    176 H55          3.3385    -0.1713     0.9365 H         1 MOL       0.0000
    177 H56         -0.5452     2.1118     4.6302 H         1 MOL       0.0000
    178 N10         -0.4697     0.5650     0.6909 N         1 MOL       0.0000
    179 C61         -1.5741    -0.6848     3.9149 C         1 MOL       0.0000
    180 C62          9.1443    -6.3929    11.8325 C         1 MOL       0.0000
    181 O37         -3.9279    -3.7484    13.0694 O         1 MOL       0.0000
    182 O38         -4.8735    12.6559     2.5493 O         1 MOL       0.0000
    183 O39         -3.6924    -5.9213    11.7115 O         1 MOL       0.0000
    184 O40         -5.0860    13.1751     0.0421 O         1 MOL       0.0000
    185 F7          -2.2834    -0.6057     4.9418 F         1 MOL       0.0000
    186 F8           7.8639    -5.9157    12.5359 F         1 MOL       0.0000
    187 F9           6.5169    12.2486     1.9691 F         1 MOL       0.0000
    188 F10         -1.2443    -1.9500     3.7691 F         1 MOL       0.0000
    189 F11         10.6623    -5.4524    10.2518 F         1 MOL       0.0000
    190 F12          3.6471     5.5154    11.3323 F         1 MOL       0.0000
    191 S3          -4.4211    -5.0275    12.5736 S         1 MOL       0.0000
    192 S4          -5.5777    13.2070     1.4287 S         1 MOL       0.0000
    193 Ti9         -7.4904    -4.8362    24.3414 Ti        1 MOL       0.0000
    194 Ti10         3.3400    -1.9550    14.9766 Ti        1 MOL       0.0000
    195 Ti11        -3.3938    -8.7724    22.5214 Ti        1 MOL       0.0000
    196 Ti12        -1.8826     0.3897    16.7484 Ti        1 MOL       0.0000
    197 Ti13        -2.8811     2.0680    14.8440 Ti        1 MOL       0.0000
    198 Ti14        -1.5056    -9.0268    24.4748 Ti        1 MOL       0.0000
    199 Ti15        -6.5412    -6.5721    22.4499 Ti        1 MOL       0.0000
    200 Ti16         1.3522    -1.6525    16.8240 Ti        1 MOL       0.0000
    201 H57         -6.9886    -0.9391    24.1219 H         1 MOL       0.0000
    202 H58          4.1488    -5.8611    15.2973 H         1 MOL       0.0000
    203 H59        -11.4503    -5.5929    23.9590 H         1 MOL       0.0000
    204 H60          6.7222     0.0493    15.1772 H         1 MOL       0.0000
    205 H61         -0.5299   -13.0613    24.0889 H         1 MOL       0.0000
    206 H62         -6.9397     1.4781    15.1661 H         1 MOL       0.0000
    207 H63         -7.0217    -6.6348    26.0659 H         1 MOL       0.0000
    208 H64          1.4645    -2.1977    13.2767 H         1 MOL       0.0000
    209 H65         -0.9956    -9.6939    18.9637 H         1 MOL       0.0000
    210 H66         -3.6060     2.2267    20.3673 H         1 MOL       0.0000
    211 H67        -10.6139    -3.1835    22.0940 H         1 MOL       0.0000
    212 H68          6.0948    -4.0393    17.2826 H         1 MOL       0.0000
    213 H69         -8.3127    -4.6309    18.7602 H         1 MOL       0.0000
    214 H70         -5.9812     3.8959    17.1972 H         1 MOL       0.0000
    215 H71         -2.4889     5.1708    15.6995 H         1 MOL       0.0000
    216 H72          3.9910    -7.8799    16.4998 H         1 MOL       0.0000
    217 H73          0.2101     0.0698    15.4098 H         1 MOL       0.0000
    218 H74         -4.4744    -6.9240    23.8150 H         1 MOL       0.0000
    219 H75          2.7292    -7.0919    22.8645 H         1 MOL       0.0000
    220 H76          1.2481    -7.5610    23.6118 H         1 MOL       0.0000
    221 H77          3.3033    -2.6583    21.7655 H         1 MOL       0.0000
    222 H78          2.7336    -2.2997    20.1470 H         1 MOL       0.0000
    223 H79          2.2404   -12.0468    22.6744 H         1 MOL       0.0000
    224 H80          0.9612   -10.9462    23.1318 H         1 MOL       0.0000
    225 C63          3.9181    -2.6963    17.8401 C         1 MOL       0.0000
    226 C64         -8.4510    -4.5749    21.4944 C         1 MOL       0.0000
    227 C65         -0.8132    -9.7831    21.5967 C         1 MOL       0.0000
    228 C66         -3.8187     2.3602    17.7078 C         1 MOL       0.0000
    229 C67          4.8141    -3.3006    18.8353 C         1 MOL       0.0000
    230 C68         -9.3829    -3.9498    20.5173 C         1 MOL       0.0000
    231 C69          0.1269   -10.3975    20.6495 C         1 MOL       0.0000
    232 C70         -4.7085     3.0070    18.7075 C         1 MOL       0.0000
    233 C71          4.5653    -3.2257    20.2417 C         1 MOL       0.0000
    234 C72         -9.1665    -4.0698    19.1293 C         1 MOL       0.0000
    235 C73          1.2564   -11.1578    21.1026 C         1 MOL       0.0000
    236 C74         -5.8032     3.7800    18.2626 C         1 MOL       0.0000
    237 C75         -4.4540     2.8362    20.0624 C         1 MOL       0.0000
    238 C76         -0.1208   -10.2653    19.2656 C         1 MOL       0.0000
    239 C77          5.9478    -3.9996    18.3596 C         1 MOL       0.0000
    240 C78        -10.4831    -3.2574    21.0160 C         1 MOL       0.0000
    241 C79          4.1298    -5.7820    13.1532 C         1 MOL       0.0000
    242 C80         -2.3399     6.0096    13.1782 C         1 MOL       0.0000
    243 C81          1.9793    -7.0849    26.1222 C         1 MOL       0.0000
    244 C82        -11.3790    -5.5425    26.1028 C         1 MOL       0.0000
    245 C83         -1.1358    -1.9535    18.7130 C         1 MOL       0.0000
    246 C84         -5.8919    -9.0479    20.6311 C         1 MOL       0.0000
    247 C85         -0.6410   -11.3932    26.2250 C         1 MOL       0.0000
    248 C86         -2.4326     4.5761    13.1407 C         1 MOL       0.0000
    249 C87          0.6815    -7.7017    26.1690 C         1 MOL       0.0000
    250 C88         -9.9767    -5.1281    26.1273 C         1 MOL       0.0000
    251 C89          4.1692    -6.4511    14.3829 C         1 MOL       0.0000
    252 C90         -6.9776    -0.3507    25.0358 C         1 MOL       0.0000
    253 C91         -8.7304     0.8129    14.1711 C         1 MOL       0.0000
    254 C92        -12.0118    -5.7722    24.8743 C         1 MOL       0.0000
    255 C93          2.6739    -6.8166    24.8888 C         1 MOL       0.0000
    256 C94         -7.4412     1.2931    14.2203 C         1 MOL       0.0000
    257 C95         -0.4883   -13.5885    25.0379 C         1 MOL       0.0000
    258 C96          4.1909    -7.8522    14.4645 C         1 MOL       0.0000
    259 N11          4.2460    -8.4511    15.7026 N         1 MOL       0.0000
    260 N12          2.0949    -6.9995    23.6498 N         1 MOL       0.0000
    261 N13          3.4845    -2.5794    20.7730 N         1 MOL       0.0000
    262 N14          1.5874   -11.3160    22.4200 N         1 MOL       0.0000
    263 O41          2.7418    -2.2912    18.2059 O         1 MOL       0.0000
    264 O42         -7.6820    -5.5257    21.0961 O         1 MOL       0.0000
    265 O43         -0.4318    -9.6587    22.8178 O         1 MOL       0.0000
    266 O44         -3.8845     2.7899    16.5082 O         1 MOL       0.0000
    267 O45         -3.0482     1.4030    18.0942 O         1 MOL       0.0000
    268 O46         -1.9837    -9.4147    21.1912 O         1 MOL       0.0000
    269 O47          4.3300    -2.6155    16.6284 O         1 MOL       0.0000
    270 O48         -8.4930    -4.1386    22.6941 O         1 MOL       0.0000
    271 O49          1.6574    -2.8704    15.6294 O         1 MOL       0.0000
    272 O50         -5.9888    -5.0118    23.1944 O         1 MOL       0.0000
    273 O51          2.5962    -0.5831    16.0793 O         1 MOL       0.0000
    274 O52         -7.7410    -6.7365    23.6871 O         1 MOL       0.0000
    275 O53         -3.1344    -9.9444    23.7818 O         1 MOL       0.0000
    276 O54         -1.3660     1.9510    16.0099 O         1 MOL       0.0000
    277 O55         -2.1805    -7.6829    23.3177 O         1 MOL       0.0000
    278 O56         -3.0722     0.1939    15.4925 O         1 MOL       0.0000
    279 O57          0.0853    -2.1334    18.3587 O         1 MOL       0.0000
    280 O58         -6.5496    -8.0129    21.0093 O         1 MOL       0.0000
    281 O59         -0.7632   -10.7986    25.0839 O         1 MOL       0.0000
    282 O60         -2.5157     3.8746    14.2359 O         1 MOL       0.0000
    283 O61          0.0389    -8.0105    25.0788 O         1 MOL       0.0000
    284 O62         -4.7517     2.0389    14.1758 O         1 MOL       0.0000
    285 O63         -4.7301    -9.3424    21.0889 O         1 MOL       0.0000
    286 O64         -1.8777    -1.0326    18.2196 O         1 MOL       0.0000
    287 O65          4.7771    -0.9359    14.2220 O         1 MOL       0.0000
    288 O66         -9.3772    -4.8963    25.0098 O         1 MOL       0.0000
    289 O67          3.9816    -3.6902    14.2514 O         1 MOL       0.0000
    290 O68         -7.1090    -3.1139    25.0911 O         1 MOL       0.0000
    291 O69         -0.1508    -0.4789    16.1304 O         1 MOL       0.0000
    292 O70         -4.8527    -7.4827    23.1115 O         1 MOL       0.0000
    293 O71          2.3033    -1.7041    13.1976 O         1 MOL       0.0000
    294 O72         -6.8993    -5.6680    26.1259 O         1 MOL       0.0000
    295 H81         -0.9196    -5.5827    21.6363 H         1 MOL       0.0000
    296 H82        -11.2462     3.5043    19.2811 H         1 MOL       0.0000
    297 H83         -0.1848     3.1150    18.7296 H         1 MOL       0.0000
    298 H84          0.0733    -4.0443    19.9163 H         1 MOL       0.0000
    299 H85         -4.5805    -3.3228    21.5359 H         1 MOL       0.0000
    300 H86          7.4889    -9.7421    20.1461 H         1 MOL       0.0000
    301 H87         -3.2566    -5.2283    22.3921 H         1 MOL       0.0000
    302 H88         -3.5606    -1.7513    19.8571 H         1 MOL       0.0000
    303 H89          1.1575     1.3478    17.6158 H         1 MOL       0.0000
    304 H90          3.6130     1.2455    17.9174 H         1 MOL       0.0000
    305 C97         -1.6979    -2.8275    19.7701 C         1 MOL       0.0000
    306 C98         -2.8114    -4.5470    21.6688 C         1 MOL       0.0000
    307 C99          1.6523     2.0801    18.2521 C         1 MOL       0.0000
    308 C100        -6.5579   -10.0503    19.7735 C         1 MOL       0.0000
    309 C101        -3.0017    -2.6018    20.2429 C         1 MOL       0.0000
    310 C102        -1.4937    -4.7478    21.2378 C         1 MOL       0.0000
    311 C103         0.8945     3.0855    18.8652 C         1 MOL       0.0000
    312 C104       -12.3221     3.5313    19.1252 C         1 MOL       0.0000
    313 C105         3.0406     2.0239    18.4187 C         1 MOL       0.0000
    314 C106         8.0487   -10.5528    19.6865 C         1 MOL       0.0000
    315 C107        -0.9379    -3.8916    20.2865 C         1 MOL       0.0000
    316 C108        -3.5630    -3.4725    21.1777 C         1 MOL       0.0000
    317 N15          0.5391     3.3975    14.3123 N         1 MOL       0.0000
    318 N16         -2.6063    -4.4561    26.0185 N         1 MOL       0.0000
    319 C109         0.3604     4.0343    13.1231 C         1 MOL       0.0000
    320 C110        -3.3771    -3.5363    25.3383 C         1 MOL       0.0000
    321 C111        -0.3128    -4.3799    24.9756 C         1 MOL       0.0000
    322 C112         0.0323     3.9362    15.5857 C         1 MOL       0.0000
    323 C113         1.4877     2.4590    14.1704 C         1 MOL       0.0000
    324 C114        -1.5070    -5.2311    25.4184 C         1 MOL       0.0000
    325 H91         -4.8792    -2.1437    26.1457 H         1 MOL       0.0000
    326 H92         -3.1311    -3.1995    24.3446 H         1 MOL       0.0000
    327 H93         -0.5724    -3.6314    24.2218 H         1 MOL       0.0000
    328 H94         -0.1705     4.9973    15.4604 H         1 MOL       0.0000
    329 H95          0.1859    -3.8766    25.8107 H         1 MOL       0.0000
    330 H96         -0.8366     3.4274    15.9510 H         1 MOL       0.0000
    331 H97          0.4047    -5.0615    24.4984 H         1 MOL       0.0000
    332 H98         -1.9056    -5.7721    24.5542 H         1 MOL       0.0000
    333 H99          0.7639     3.7838    16.3674 H         1 MOL       0.0000
    334 H100         1.9486     1.9034    14.9819 H         1 MOL       0.0000
    335 H101        -1.1983    -5.9580    26.1732 H         1 MOL       0.0000
    336 N17         -2.6531    -0.5259    26.0442 N         1 MOL       0.0000
    337 C115        -4.1732    -6.4565    14.7137 C         1 MOL       0.0000
    338 C116         4.6681   -12.5742    23.5425 C         1 MOL       0.0000
    339 O73          9.1000    -7.3355    15.7444 O         1 MOL       0.0000
    340 O74          4.2724     4.5536    14.5268 O         1 MOL       0.0000
    341 O75         -3.2665    -1.3091    23.4387 O         1 MOL       0.0000
    342 O76         -0.6582    -0.6181    21.9546 O         1 MOL       0.0000
    343 F13         -4.2802    -5.1159    15.3949 F         1 MOL       0.0000
    344 F14          4.6860   -10.3019    25.0091 F         1 MOL       0.0000
    345 F15         -2.7076    -5.6901    13.9385 F         1 MOL       0.0000
    346 F16         -4.9182    -7.2894    17.0964 F         1 MOL       0.0000
    347 F17          4.1414   -11.4739    23.1386 F         1 MOL       0.0000
    348 F18         -2.4266     1.0967    21.5546 F         1 MOL       0.0000
    349 S5           3.0819     6.2264    14.4046 S         1 MOL       0.0000
    350 S6          -2.0627    -0.5653    23.9035 S         1 MOL       0.0000
    351 N18         -1.3798    -5.4919    16.5095 N         1 MOL       0.0000
    352 N19         -3.1249    -4.7072    17.5913 N         1 MOL       0.0000
    353 C117        -0.3781    -5.8376    15.4315 C         1 MOL       0.0000
    354 C118        -2.3233    -4.5347    16.5050 C         1 MOL       0.0000
    355 C119        -1.5998    -6.3250    17.6259 C         1 MOL       0.0000
    356 C120        -0.4909    -7.2311    14.7721 C         1 MOL       0.0000
    357 C121        -2.6334    -5.7328    18.3256 C         1 MOL       0.0000
    358 C122        -4.4721    -4.1149    17.8181 C         1 MOL       0.0000
    359 H102         0.6079    -5.7089    15.8873 H         1 MOL       0.0000
    360 H103        -0.5097    -5.0878    14.6505 H         1 MOL       0.0000
    361 H104        -2.4788    -3.8024    15.7123 H         1 MOL       0.0000
    362 H105         0.4483    -7.4120    14.2301 H         1 MOL       0.0000
    363 H106        -0.9472    -7.1343    17.8698 H         1 MOL       0.0000
    364 H107        -4.5310    -3.6831    18.8210 H         1 MOL       0.0000
    365 H108        -4.7310    -3.3888    17.0416 H         1 MOL       0.0000
    366 H109        -0.6406    -8.0687    15.4647 H         1 MOL       0.0000
    367 H110        -3.1481    -6.0837    19.2169 H         1 MOL       0.0000
    368 H111        -1.2965    -7.2373    14.0315 H         1 MOL       0.0000
    369 H112        -5.1802    -4.9542    17.7252 H         1 MOL       0.0000
    370 N20         -5.1047    -6.5010    13.7859 N         1 MOL       0.0000
    371 C123        -6.2091    -7.7508    17.0099 C         1 MOL       0.0000
    372 C124         4.5093   -13.4589    24.9275 C         1 MOL       0.0000
    373 O77         -8.5629   -10.8144    26.1644 O         1 MOL       0.0000
    374 O78         -9.5085     5.5899    15.6443 O         1 MOL       0.0000
    375 O79         -8.3274   -12.9873    24.8065 O         1 MOL       0.0000
    376 O80         -9.7210     6.1091    13.1371 O         1 MOL       0.0000
    377 F19         -6.9184    -7.6717    18.0368 F         1 MOL       0.0000
    378 F20          3.2289   -12.9817    25.6309 F         1 MOL       0.0000
    379 F21          1.8819     5.1826    15.0641 F         1 MOL       0.0000
    380 F22         -5.8793    -9.0160    16.8641 F         1 MOL       0.0000
    381 F23          6.0273   -12.5184    23.3468 F         1 MOL       0.0000
    382 F24         -0.9879    -1.5506    24.4273 F         1 MOL       0.0000
    383 S7          -9.0561   -12.0935    25.6686 S         1 MOL       0.0000
    384 S8         -10.2127     6.1410    14.5237 S         1 MOL       0.0000
    385 Ti17        -9.3724    16.8428    11.1894 Ti        1 MOL       0.0000
    386 Ti18         1.4580    19.7240     1.8246 Ti        1 MOL       0.0000
    387 Ti19        -5.2758    12.9066     9.3694 Ti        1 MOL       0.0000
    388 Ti20        -3.7646    22.0687     3.5964 Ti        1 MOL       0.0000
    389 Ti21        -4.7631    23.7470     1.6920 Ti        1 MOL       0.0000
    390 Ti22        -3.3876    12.6522    11.3228 Ti        1 MOL       0.0000
    391 Ti23        -8.4232    15.1069     9.2979 Ti        1 MOL       0.0000
    392 Ti24        -0.5298    20.0265     3.6721 Ti        1 MOL       0.0000
    393 H113        -8.8706    20.7399    10.9699 H         1 MOL       0.0000
    394 H114         2.2668    15.8179     2.1453 H         1 MOL       0.0000
    395 H115       -13.3323    16.0861    10.8070 H         1 MOL       0.0000
    396 H116         4.8402    21.7283     2.0252 H         1 MOL       0.0000
    397 H117        -2.4119     8.6177    10.9369 H         1 MOL       0.0000
    398 H118        -8.8217    23.1571     2.0141 H         1 MOL       0.0000
    399 H119        -8.9037    15.0442    12.9139 H         1 MOL       0.0000
    400 H120        -0.4175    19.4813     0.1247 H         1 MOL       0.0000
    401 H121        -2.8776    11.9851     5.8117 H         1 MOL       0.0000
    402 H122        -5.4880    23.9057     7.2153 H         1 MOL       0.0000
    403 H123       -12.4959    18.4955     8.9420 H         1 MOL       0.0000
    404 H124         4.2128    17.6396     4.1306 H         1 MOL       0.0000
    405 H125       -10.1948    17.0481     5.6082 H         1 MOL       0.0000
    406 H126        -7.8632    25.5749     4.0452 H         1 MOL       0.0000
    407 H127        -4.3709    26.8498     2.5475 H         1 MOL       0.0000
    408 H128         2.1090    13.7991     3.3478 H         1 MOL       0.0000
    409 H129        -1.6719    21.7488     2.2578 H         1 MOL       0.0000
    410 H130        -6.3565    14.7550    10.6630 H         1 MOL       0.0000
    411 H131         0.8472    14.5871     9.7125 H         1 MOL       0.0000
    412 H132        -0.6339    14.1180    10.4598 H         1 MOL       0.0000
    413 H133         1.4213    19.0207     8.6136 H         1 MOL       0.0000
    414 H134         0.8516    19.3793     6.9950 H         1 MOL       0.0000
    415 H135         0.3584     9.6322     9.5224 H         1 MOL       0.0000
    416 H136        -0.9208    10.7328     9.9798 H         1 MOL       0.0000
    417 C125         2.0361    18.9827     4.6881 C         1 MOL       0.0000
    418 C126       -10.3330    17.1042     8.3424 C         1 MOL       0.0000
    419 C127        -2.6952    11.8959     8.4447 C         1 MOL       0.0000
    420 C128        -5.7007    24.0392     4.5557 C         1 MOL       0.0000
    421 C129         2.9321    18.3784     5.6833 C         1 MOL       0.0000
    422 C130       -11.2649    17.7292     7.3653 C         1 MOL       0.0000
    423 C131        -1.7550    11.2815     7.4975 C         1 MOL       0.0000
    424 C132        -6.5905    24.6860     5.5555 C         1 MOL       0.0000
    425 C133         2.6833    18.4533     7.0897 C         1 MOL       0.0000
    426 C134       -11.0485    17.6092     5.9773 C         1 MOL       0.0000
    427 C135        -0.6256    10.5212     7.9506 C         1 MOL       0.0000
    428 C136        -7.6852    25.4590     5.1106 C         1 MOL       0.0000
    429 C137        -6.3360    24.5152     6.9104 C         1 MOL       0.0000
    430 C138        -2.0028    11.4136     6.1136 C         1 MOL       0.0000
    431 C139         4.0658    17.6794     5.2076 C         1 MOL       0.0000
    432 C140       -12.3651    18.4216     7.8640 C         1 MOL       0.0000
    433 C141         2.2478    15.8970     0.0012 C         1 MOL       0.0000
    434 C142        -4.2219    27.6886     0.0262 C         1 MOL       0.0000
    435 C143         0.0973    14.5941    12.9702 C         1 MOL       0.0000
    436 C144       -13.2610    16.1365    12.9508 C         1 MOL       0.0000
    437 C145        -3.0178    19.7255     5.5610 C         1 MOL       0.0000
    438 C146        -7.7739    12.6311     7.4791 C         1 MOL       0.0000
    439 C147        -2.5230    10.2858    13.0730 C         1 MOL       0.0000
    440 C148        -4.3146    26.2551    -0.0113 C         1 MOL       0.0000
    441 C149        -1.2006    13.9773    13.0170 C         1 MOL       0.0000
    442 C150       -11.8587    16.5509    12.9753 C         1 MOL       0.0000
    443 C151         2.2872    15.2279     1.2309 C         1 MOL       0.0000
    444 C152        -8.8596    21.3283    11.8838 C         1 MOL       0.0000
    445 C153       -10.6124    22.4919     1.0191 C         1 MOL       0.0000
    446 C154       -13.8938    15.9068    11.7223 C         1 MOL       0.0000
    447 C155         0.7919    14.8624    11.7368 C         1 MOL       0.0000
    448 C156        -9.3232    22.9721     1.0683 C         1 MOL       0.0000
    449 C157        -2.3703     8.0905    11.8859 C         1 MOL       0.0000
    450 C158         2.3089    13.8268     1.3125 C         1 MOL       0.0000
    451 N21          2.3640    13.2279     2.5506 N         1 MOL       0.0000
    452 N22          0.2129    14.6795    10.4978 N         1 MOL       0.0000
    453 N23          1.6025    19.0996     7.6210 N         1 MOL       0.0000
    454 N24         -0.2946    10.3630     9.2680 N         1 MOL       0.0000
    455 O81          0.8598    19.3878     5.0539 O         1 MOL       0.0000
    456 O82         -9.5640    16.1533     7.9441 O         1 MOL       0.0000
    457 O83         -2.3138    12.0203     9.6658 O         1 MOL       0.0000
    458 O84         -5.7665    24.4689     3.3561 O         1 MOL       0.0000
    459 O85         -4.9302    23.0820     4.9422 O         1 MOL       0.0000
    460 O86         -3.8657    12.2643     8.0392 O         1 MOL       0.0000
    461 O87          2.4480    19.0635     3.4764 O         1 MOL       0.0000
    462 O88        -10.3750    17.5404     9.5421 O         1 MOL       0.0000
    463 O89         -0.2246    18.8086     2.4774 O         1 MOL       0.0000
    464 O90         -7.8708    16.6672    10.0424 O         1 MOL       0.0000
    465 O91          0.7142    21.0959     2.9273 O         1 MOL       0.0000
    466 O92         -9.6230    14.9425    10.5351 O         1 MOL       0.0000
    467 O93         -5.0164    11.7346    10.6298 O         1 MOL       0.0000
    468 O94         -3.2480    23.6300     2.8579 O         1 MOL       0.0000
    469 O95         -4.0625    13.9961    10.1657 O         1 MOL       0.0000
    470 O96         -4.9542    21.8729     2.3405 O         1 MOL       0.0000
    471 O97         -1.7967    19.5457     5.2067 O         1 MOL       0.0000
    472 O98         -8.4316    13.6661     7.8573 O         1 MOL       0.0000
    473 O99         -2.6452    10.8804    11.9319 O         1 MOL       0.0000
    474 O100        -4.3977    25.5536     1.0839 O         1 MOL       0.0000
    475 O101        -1.8431    13.6685    11.9268 O         1 MOL       0.0000
    476 O102        -6.6337    23.7179     1.0238 O         1 MOL       0.0000
    477 O103        -6.6121    12.3366     7.9369 O         1 MOL       0.0000
    478 O104        -3.7597    20.6464     5.0676 O         1 MOL       0.0000
    479 O105         2.8951    20.7431     1.0700 O         1 MOL       0.0000
    480 O106       -11.2592    16.7827    11.8578 O         1 MOL       0.0000
    481 O107         2.0995    17.9888     1.0994 O         1 MOL       0.0000
    482 O108        -8.9910    18.5650    11.9391 O         1 MOL       0.0000
    483 O109        -2.0328    21.2001     2.9784 O         1 MOL       0.0000
    484 O110        -6.7347    14.1963     9.9595 O         1 MOL       0.0000
    485 O111         0.4213    19.9749     0.0456 O         1 MOL       0.0000
    486 O112        -8.7813    16.0110    12.9739 O         1 MOL       0.0000
    487 H137        -2.8016    16.0963     8.4843 H         1 MOL       0.0000
    488 H138       -13.1282    25.1833     6.1291 H         1 MOL       0.0000
    489 H139        -2.0668    24.7940     5.5776 H         1 MOL       0.0000
    490 H140        -1.8087    17.6347     6.7643 H         1 MOL       0.0000
    491 H141        -6.4625    18.3562     8.3839 H         1 MOL       0.0000
    492 H142         5.6069    11.9369     6.9941 H         1 MOL       0.0000
    493 H143        -5.1386    16.4507     9.2401 H         1 MOL       0.0000
    494 H144        -5.4426    19.9277     6.7051 H         1 MOL       0.0000
    495 H145        -0.7245    23.0268     4.4638 H         1 MOL       0.0000
    496 H146         1.7310    22.9245     4.7654 H         1 MOL       0.0000
    497 C159        -3.5799    18.8515     6.6181 C         1 MOL       0.0000
    498 C160        -4.6934    17.1320     8.5168 C         1 MOL       0.0000
    499 C161        -0.2297    23.7591     5.1001 C         1 MOL       0.0000
    500 C162        -8.4399    11.6287     6.6215 C         1 MOL       0.0000
    501 C163        -4.8837    19.0772     7.0909 C         1 MOL       0.0000
    502 C164        -3.3757    16.9312     8.0858 C         1 MOL       0.0000
    503 C165        -0.9875    24.7645     5.7132 C         1 MOL       0.0000
    504 C166       -14.2041    25.2103     5.9732 C         1 MOL       0.0000
    505 C167         1.1586    23.7029     5.2667 C         1 MOL       0.0000
    506 C168         6.1667    11.1262     6.5345 C         1 MOL       0.0000
    507 C169        -2.8199    17.7874     7.1345 C         1 MOL       0.0000
    508 C170        -5.4450    18.2065     8.0257 C         1 MOL       0.0000
    509 N25         -1.3429    25.0765     1.1603 N         1 MOL       0.0000
    510 N26         -4.4883    17.2229    12.8665 N         1 MOL       0.0000
    511 C171        -1.5216    25.7133    -0.0289 C         1 MOL       0.0000
    512 C172        -5.2591    18.1427    12.1863 C         1 MOL       0.0000
    513 C173        -2.1948    17.2991    11.8236 C         1 MOL       0.0000
    514 C174        -1.8497    25.6152     2.4337 C         1 MOL       0.0000
    515 C175        -0.3943    24.1380     1.0184 C         1 MOL       0.0000
    516 C176        -3.3890    16.4479    12.2664 C         1 MOL       0.0000
    517 H147        -6.7612    19.5353    12.9937 H         1 MOL       0.0000
    518 H148        -5.0131    18.4795    11.1926 H         1 MOL       0.0000
    519 H149        -2.4544    18.0476    11.0698 H         1 MOL       0.0000
    520 H150        -2.0525    26.6763     2.3084 H         1 MOL       0.0000
    521 H151        -1.6961    17.8024    12.6587 H         1 MOL       0.0000
    522 H152        -2.7186    25.1064     2.7990 H         1 MOL       0.0000
    523 H153        -1.4773    16.6175    11.3464 H         1 MOL       0.0000
    524 H154        -3.7876    15.9069    11.4022 H         1 MOL       0.0000
    525 H155        -1.1181    25.4628     3.2154 H         1 MOL       0.0000
    526 H156         0.0666    23.5824     1.8299 H         1 MOL       0.0000
    527 H157        -3.0803    15.7210    13.0212 H         1 MOL       0.0000
    528 N27         -4.5351    21.1531    12.8922 N         1 MOL       0.0000
    529 C177        -6.0552    15.2225     1.5617 C         1 MOL       0.0000
    530 C178         2.7861     9.1048    10.3905 C         1 MOL       0.0000
    531 O113         7.2180    14.3435     2.5924 O         1 MOL       0.0000
    532 O114         2.3904    26.2326     1.3748 O         1 MOL       0.0000
    533 O115        -5.1485    20.3699    10.2867 O         1 MOL       0.0000
    534 O116        -2.5402    21.0609     8.8026 O         1 MOL       0.0000
    535 F25         -6.1622    16.5631     2.2429 F         1 MOL       0.0000
    536 F26          2.8040    11.3771    11.8571 F         1 MOL       0.0000
    537 F27         -4.5896    15.9889     0.7865 F         1 MOL       0.0000
    538 F28         -6.8002    14.3896     3.9444 F         1 MOL       0.0000
    539 F29          2.2594    10.2051     9.9866 F         1 MOL       0.0000
    540 F30         -4.3086    22.7757     8.4026 F         1 MOL       0.0000
    541 S9           1.1999    27.9054     1.2526 S         1 MOL       0.0000
    542 S10         -3.9447    21.1137    10.7515 S         1 MOL       0.0000
    543 N28         -3.2618    16.1871     3.3575 N         1 MOL       0.0000
    544 N29         -5.0069    16.9718     4.4393 N         1 MOL       0.0000
    545 C179        -2.2601    15.8414     2.2795 C         1 MOL       0.0000
    546 C180        -4.2053    17.1443     3.3530 C         1 MOL       0.0000
    547 C181        -3.4818    15.3540     4.4739 C         1 MOL       0.0000
    548 C182        -2.3729    14.4479     1.6201 C         1 MOL       0.0000
    549 C183        -4.5154    15.9462     5.1736 C         1 MOL       0.0000
    550 C184        -6.3541    17.5641     4.6661 C         1 MOL       0.0000
    551 H158        -1.2741    15.9701     2.7353 H         1 MOL       0.0000
    552 H159        -2.3917    16.5912     1.4985 H         1 MOL       0.0000
    553 H160        -4.3608    17.8766     2.5603 H         1 MOL       0.0000
    554 H161        -1.4337    14.2670     1.0781 H         1 MOL       0.0000
    555 H162        -2.8292    14.5447     4.7178 H         1 MOL       0.0000
    556 H163        -6.4130    17.9959     5.6690 H         1 MOL       0.0000
    557 H164        -6.6130    18.2902     3.8896 H         1 MOL       0.0000
    558 H165        -2.5226    13.6103     2.3127 H         1 MOL       0.0000
    559 H166        -5.0301    15.5953     6.0649 H         1 MOL       0.0000
    560 H167        -3.1785    14.4417     0.8795 H         1 MOL       0.0000
    561 H168        -7.0622    16.7248     4.5732 H         1 MOL       0.0000
    562 N30         -6.9867    15.1780     0.6339 N         1 MOL       0.0000
    563 C185        -8.0911    13.9282     3.8579 C         1 MOL       0.0000
    564 C186         2.6273     8.2201    11.7755 C         1 MOL       0.0000
    565 O117       -10.4449    10.8646    13.0124 O         1 MOL       0.0000
    566 O118       -11.3905    27.2689     2.4923 O         1 MOL       0.0000
    567 O119       -10.2094     8.6917    11.6545 O         1 MOL       0.0000
    568 O120       -11.6030    27.7881    -0.0149 O         1 MOL       0.0000
    569 F31         -8.8004    14.0073     4.8848 F         1 MOL       0.0000
    570 F32          1.3469     8.6973    12.4789 F         1 MOL       0.0000
    571 F33         -0.0001    26.8616     1.9121 F         1 MOL       0.0000
    572 F34         -7.7613    12.6630     3.7121 F         1 MOL       0.0000
    573 F35          4.1453     9.1606    10.1948 F         1 MOL       0.0000
    574 F36         -2.8699    20.1284    11.2753 F         1 MOL       0.0000
    575 S11        -10.9381     9.5855    12.5166 S         1 MOL       0.0000
    576 S12        -12.0947    27.8200     1.3717 S         1 MOL       0.0000
    577 Ti25       -14.0074     9.7768    24.2844 Ti        1 MOL       0.0000
    578 Ti26        -3.1770    12.6580    14.9196 Ti        1 MOL       0.0000
    579 Ti27        -9.9108     5.8406    22.4644 Ti        1 MOL       0.0000
    580 Ti28        -8.3996    15.0027    16.6914 Ti        1 MOL       0.0000
    581 Ti29        -9.3981    16.6810    14.7870 Ti        1 MOL       0.0000
    582 Ti30        -8.0226     5.5862    24.4178 Ti        1 MOL       0.0000
    583 Ti31       -13.0582     8.0409    22.3929 Ti        1 MOL       0.0000
    584 Ti32        -5.1648    12.9605    16.7671 Ti        1 MOL       0.0000
    585 H169       -13.5056    13.6739    24.0649 H         1 MOL       0.0000
    586 H170        -2.3682     8.7519    15.2403 H         1 MOL       0.0000
    587 H171       -17.9673     9.0201    23.9020 H         1 MOL       0.0000
    588 H172         0.2052    14.6623    15.1202 H         1 MOL       0.0000
    589 H173        -7.0469     1.5517    24.0319 H         1 MOL       0.0000
    590 H174       -13.4567    16.0911    15.1091 H         1 MOL       0.0000
    591 H175       -13.5387     7.9782    26.0089 H         1 MOL       0.0000
    592 H176        -5.0525    12.4153    13.2196 H         1 MOL       0.0000
    593 H177        -7.5126     4.9191    18.9067 H         1 MOL       0.0000
    594 H178       -10.1230    16.8397    20.3103 H         1 MOL       0.0000
    595 H179       -17.1309    11.4295    22.0370 H         1 MOL       0.0000
    596 H180        -0.4222    10.5736    17.2256 H         1 MOL       0.0000
    597 H181       -14.8298     9.9821    18.7032 H         1 MOL       0.0000
    598 H182       -12.4982    18.5089    17.1402 H         1 MOL       0.0000
    599 H183        -9.0059    19.7838    15.6425 H         1 MOL       0.0000
    600 H184        -2.5260     6.7331    16.4428 H         1 MOL       0.0000
    601 H185        -6.3069    14.6828    15.3528 H         1 MOL       0.0000
    602 H186       -10.9915     7.6890    23.7580 H         1 MOL       0.0000
    603 H187        -3.7878     7.5211    22.8075 H         1 MOL       0.0000
    604 H188        -5.2689     7.0520    23.5548 H         1 MOL       0.0000
    605 H189        -3.2137    11.9547    21.7085 H         1 MOL       0.0000
    606 H190        -3.7834    12.3133    20.0900 H         1 MOL       0.0000
    607 H191        -4.2766     2.5662    22.6174 H         1 MOL       0.0000
    608 H192        -5.5558     3.6668    23.0748 H         1 MOL       0.0000
    609 C187        -2.5989    11.9167    17.7831 C         1 MOL       0.0000
    610 C188       -14.9680    10.0381    21.4374 C         1 MOL       0.0000
    611 C189        -7.3302     4.8299    21.5397 C         1 MOL       0.0000
    612 C190       -10.3357    16.9732    17.6507 C         1 MOL       0.0000
    613 C191        -1.7029    11.3124    18.7783 C         1 MOL       0.0000
    614 C192       -15.8999    10.6632    20.4603 C         1 MOL       0.0000
    615 C193        -6.3900     4.2155    20.5925 C         1 MOL       0.0000
    616 C194       -11.2255    17.6200    18.6505 C         1 MOL       0.0000
    617 C195        -1.9517    11.3873    20.1847 C         1 MOL       0.0000
    618 C196       -15.6835    10.5432    19.0723 C         1 MOL       0.0000
    619 C197        -5.2606     3.4552    21.0456 C         1 MOL       0.0000
    620 C198       -12.3202    18.3930    18.2056 C         1 MOL       0.0000
    621 C199       -10.9710    17.4492    20.0054 C         1 MOL       0.0000
    622 C200        -6.6378     4.3476    19.2086 C         1 MOL       0.0000
    623 C201        -0.5692    10.6134    18.3026 C         1 MOL       0.0000
    624 C202       -17.0001    11.3556    20.9590 C         1 MOL       0.0000
    625 C203        -2.3872     8.8310    13.0962 C         1 MOL       0.0000
    626 C204        -8.8569    20.6226    13.1212 C         1 MOL       0.0000
    627 C205        -4.5377     7.5281    26.0652 C         1 MOL       0.0000
    628 C206       -17.8960     9.0705    26.0458 C         1 MOL       0.0000
    629 C207        -7.6528    12.6595    18.6560 C         1 MOL       0.0000
    630 C208       -12.4089     5.5651    20.5741 C         1 MOL       0.0000
    631 C209        -7.1580     3.2199    26.1680 C         1 MOL       0.0000
    632 C210        -8.9496    19.1891    13.0837 C         1 MOL       0.0000
    633 C211        -5.8355     6.9113    26.1120 C         1 MOL       0.0000
    634 C212       -16.4937     9.4849    26.0703 C         1 MOL       0.0000
    635 C213        -2.3478     8.1619    14.3259 C         1 MOL       0.0000
    636 C214       -13.4946    14.2623    24.9788 C         1 MOL       0.0000
    637 C215       -15.2474    15.4259    14.1141 C         1 MOL       0.0000
    638 C216       -18.5288     8.8408    24.8173 C         1 MOL       0.0000
    639 C217        -3.8431     7.7964    24.8318 C         1 MOL       0.0000
    640 C218       -13.9582    15.9061    14.1633 C         1 MOL       0.0000
    641 C219        -7.0053     1.0245    24.9809 C         1 MOL       0.0000
    642 C220        -2.3261     6.7608    14.4075 C         1 MOL       0.0000
    643 N31         -2.2710     6.1619    15.6456 N         1 MOL       0.0000
    644 N32         -4.4221     7.6135    23.5928 N         1 MOL       0.0000
    645 N33         -3.0325    12.0336    20.7160 N         1 MOL       0.0000
    646 N34         -4.9296     3.2970    22.3630 N         1 MOL       0.0000
    647 O121        -3.7752    12.3218    18.1489 O         1 MOL       0.0000
    648 O122       -14.1990     9.0873    21.0391 O         1 MOL       0.0000
    649 O123        -6.9488     4.9543    22.7608 O         1 MOL       0.0000
    650 O124       -10.4015    17.4029    16.4512 O         1 MOL       0.0000
    651 O125        -9.5652    16.0160    18.0372 O         1 MOL       0.0000
    652 O126        -8.5007     5.1983    21.1342 O         1 MOL       0.0000
    653 O127        -2.1870    11.9975    16.5714 O         1 MOL       0.0000
    654 O128       -15.0100    10.4744    22.6371 O         1 MOL       0.0000
    655 O129        -4.8596    11.7426    15.5724 O         1 MOL       0.0000
    656 O130       -12.5058     9.6012    23.1374 O         1 MOL       0.0000
    657 O131        -3.9208    14.0299    16.0223 O         1 MOL       0.0000
    658 O132       -14.2580     7.8765    23.6301 O         1 MOL       0.0000
    659 O133        -9.6515     4.6686    23.7248 O         1 MOL       0.0000
    660 O134        -7.8830    16.5640    15.9529 O         1 MOL       0.0000
    661 O135        -8.6975     6.9301    23.2607 O         1 MOL       0.0000
    662 O136        -9.5892    14.8069    15.4355 O         1 MOL       0.0000
    663 O137        -6.4317    12.4797    18.3017 O         1 MOL       0.0000
    664 O138       -13.0666     6.6001    20.9523 O         1 MOL       0.0000
    665 O139        -7.2802     3.8144    25.0269 O         1 MOL       0.0000
    666 O140        -9.0327    18.4876    14.1789 O         1 MOL       0.0000
    667 O141        -6.4781     6.6025    25.0218 O         1 MOL       0.0000
    668 O142       -11.2687    16.6519    14.1188 O         1 MOL       0.0000
    669 O143       -11.2471     5.2706    21.0319 O         1 MOL       0.0000
    670 O144        -8.3947    13.5804    18.1626 O         1 MOL       0.0000
    671 O145        -1.7399    13.6771    14.1650 O         1 MOL       0.0000
    672 O146       -15.8942     9.7167    24.9528 O         1 MOL       0.0000
    673 O147        -2.5355    10.9228    14.1944 O         1 MOL       0.0000
    674 O148       -13.6260    11.4990    25.0341 O         1 MOL       0.0000
    675 O149        -6.6678    14.1341    16.0734 O         1 MOL       0.0000
    676 O150       -11.3697     7.1303    23.0545 O         1 MOL       0.0000
    677 O151        -4.2137    12.9089    13.1406 O         1 MOL       0.0000
    678 O152       -13.4163     8.9450    26.0689 O         1 MOL       0.0000
    679 H193        -7.4366     9.0303    21.5793 H         1 MOL       0.0000
    680 H194       -17.7632    18.1173    19.2241 H         1 MOL       0.0000
    681 H195        -6.7018    17.7280    18.6726 H         1 MOL       0.0000
    682 H196        -6.4437    10.5687    19.8593 H         1 MOL       0.0000
    683 H197       -11.0975    11.2902    21.4789 H         1 MOL       0.0000
    684 H198         0.9719     4.8709    20.0891 H         1 MOL       0.0000
    685 H199        -9.7736     9.3847    22.3351 H         1 MOL       0.0000
    686 H200       -10.0776    12.8617    19.8001 H         1 MOL       0.0000
    687 H201        -5.3595    15.9608    17.5588 H         1 MOL       0.0000
    688 H202        -2.9040    15.8585    17.8604 H         1 MOL       0.0000
    689 C221        -8.2149    11.7855    19.7131 C         1 MOL       0.0000
    690 C222        -9.3284    10.0660    21.6118 C         1 MOL       0.0000
    691 C223        -4.8647    16.6931    18.1951 C         1 MOL       0.0000
    692 C224       -13.0749     4.5627    19.7165 C         1 MOL       0.0000
    693 C225        -9.5187    12.0112    20.1859 C         1 MOL       0.0000
    694 C226        -8.0107     9.8652    21.1808 C         1 MOL       0.0000
    695 C227        -5.6225    17.6985    18.8082 C         1 MOL       0.0000
    696 C228       -18.8391    18.1443    19.0682 C         1 MOL       0.0000
    697 C229        -3.4764    16.6369    18.3617 C         1 MOL       0.0000
    698 C230         1.5317     4.0602    19.6295 C         1 MOL       0.0000
    699 C231        -7.4549    10.7214    20.2295 C         1 MOL       0.0000
    700 C232       -10.0800    11.1405    21.1207 C         1 MOL       0.0000
    701 N35         -5.9779    18.0105    14.2553 N         1 MOL       0.0000
    702 N36         -9.1233    10.1569    25.9615 N         1 MOL       0.0000
    703 C233        -6.1566    18.6473    13.0661 C         1 MOL       0.0000
    704 C234        -9.8941    11.0767    25.2813 C         1 MOL       0.0000
    705 C235        -6.8298    10.2331    24.9186 C         1 MOL       0.0000
    706 C236        -6.4847    18.5492    15.5287 C         1 MOL       0.0000
    707 C237        -5.0293    17.0720    14.1134 C         1 MOL       0.0000
    708 C238        -8.0240     9.3819    25.3614 C         1 MOL       0.0000
    709 H203       -11.3962    12.4693    26.0887 H         1 MOL       0.0000
    710 H204        -9.6481    11.4135    24.2876 H         1 MOL       0.0000
    711 H205        -7.0894    10.9816    24.1648 H         1 MOL       0.0000
    712 H206        -6.6875    19.6103    15.4034 H         1 MOL       0.0000
    713 H207        -6.3311    10.7364    25.7537 H         1 MOL       0.0000
    714 H208        -7.3536    18.0404    15.8940 H         1 MOL       0.0000
    715 H209        -6.1123     9.5515    24.4414 H         1 MOL       0.0000
    716 H210        -8.4226     8.8409    24.4972 H         1 MOL       0.0000
    717 H211        -5.7531    18.3968    16.3104 H         1 MOL       0.0000
    718 H212        -4.5684    16.5164    14.9249 H         1 MOL       0.0000
    719 H213        -7.7153     8.6550    26.1162 H         1 MOL       0.0000
    720 N37         -9.1701    14.0871    25.9872 N         1 MOL       0.0000
    721 C239       -10.6902     8.1565    14.6567 C         1 MOL       0.0000
    722 C240        -1.8489     2.0388    23.4855 C         1 MOL       0.0000
    723 O153         2.5830     7.2775    15.6874 O         1 MOL       0.0000
    724 O154        -2.2446    19.1666    14.4698 O         1 MOL       0.0000
    725 O155        -9.7835    13.3039    23.3817 O         1 MOL       0.0000
    726 O156        -7.1752    13.9949    21.8976 O         1 MOL       0.0000
    727 F37        -10.7972     9.4971    15.3379 F         1 MOL       0.0000
    728 F38         -1.8310     4.3111    24.9521 F         1 MOL       0.0000
    729 F39         -9.2246     8.9229    13.8815 F         1 MOL       0.0000
    730 F40        -11.4352     7.3236    17.0394 F         1 MOL       0.0000
    731 F41         -2.3756     3.1391    23.0816 F         1 MOL       0.0000
    732 F42         -8.9436    15.7097    21.4976 F         1 MOL       0.0000
    733 S13         -3.4351    20.8394    14.3476 S         1 MOL       0.0000
    734 S14         -8.5797    14.0477    23.8465 S         1 MOL       0.0000
    735 N38         -7.8968     9.1211    16.4525 N         1 MOL       0.0000
    736 N39         -9.6419     9.9058    17.5343 N         1 MOL       0.0000
    737 C241        -6.8951     8.7754    15.3745 C         1 MOL       0.0000
    738 C242        -8.8403    10.0783    16.4480 C         1 MOL       0.0000
    739 C243        -8.1168     8.2880    17.5689 C         1 MOL       0.0000
    740 C244        -7.0079     7.3819    14.7151 C         1 MOL       0.0000
    741 C245        -9.1504     8.8802    18.2686 C         1 MOL       0.0000
    742 C246       -10.9891    10.4981    17.7611 C         1 MOL       0.0000
    743 H214        -5.9091     8.9041    15.8303 H         1 MOL       0.0000
    744 H215        -7.0267     9.5252    14.5935 H         1 MOL       0.0000
    745 H216        -8.9958    10.8106    15.6553 H         1 MOL       0.0000
    746 H217        -6.0687     7.2010    14.1731 H         1 MOL       0.0000
    747 H218        -7.4642     7.4787    17.8128 H         1 MOL       0.0000
    748 H219       -11.0480    10.9299    18.7640 H         1 MOL       0.0000
    749 H220       -11.2480    11.2242    16.9846 H         1 MOL       0.0000
    750 H221        -7.1576     6.5443    15.4077 H         1 MOL       0.0000
    751 H222        -9.6651     8.5293    19.1599 H         1 MOL       0.0000
    752 H223        -7.8135     7.3757    13.9745 H         1 MOL       0.0000
    753 H224       -11.6972     9.6588    17.6682 H         1 MOL       0.0000
    754 N40        -11.6217     8.1120    13.7289 N         1 MOL       0.0000
    755 C247       -12.7261     6.8622    16.9529 C         1 MOL       0.0000
    756 C248        -2.0077     1.1541    24.8705 C         1 MOL       0.0000
    757 O157       -15.0799     3.7986    26.1074 O         1 MOL       0.0000
    758 O158       -16.0255    20.2029    15.5873 O         1 MOL       0.0000
    759 O159       -14.8444     1.6257    24.7495 O         1 MOL       0.0000
    760 O160       -16.2380    20.7221    13.0801 O         1 MOL       0.0000
    761 F43        -13.4354     6.9413    17.9798 F         1 MOL       0.0000
    762 F44         -3.2881     1.6313    25.5739 F         1 MOL       0.0000
    763 F45         -4.6351    19.7956    15.0071 F         1 MOL       0.0000
    764 F46        -12.3963     5.5970    16.8071 F         1 MOL       0.0000
    765 F47         -0.4897     2.0946    23.2898 F         1 MOL       0.0000
    766 F48         -7.5049    13.0624    24.3703 F         1 MOL       0.0000
    767 S15        -15.5731     2.5195    25.6116 S         1 MOL       0.0000
    768 S16        -16.7297    20.7540    14.4667 S         1 MOL       0.0000
    769 Ti33        13.1446     1.6728    11.3364 Ti        1 MOL       0.0000
    770 Ti34        23.9750     4.5540     1.9716 Ti        1 MOL       0.0000
    771 Ti35        17.2413    -2.2634     9.5164 Ti        1 MOL       0.0000
    772 Ti36        18.7524     6.8987     3.7434 Ti        1 MOL       0.0000
    773 Ti37        17.7539     8.5770     1.8390 Ti        1 MOL       0.0000
    774 Ti38        19.1295    -2.5178    11.4698 Ti        1 MOL       0.0000
    775 Ti39        14.0938    -0.0631     9.4449 Ti        1 MOL       0.0000
    776 Ti40        21.9872     4.8565     3.8191 Ti        1 MOL       0.0000
    777 H225        13.6464     5.5698    11.1169 H         1 MOL       0.0000
    778 H226        24.7838     0.6479     2.2923 H         1 MOL       0.0000
    779 H227         9.1847     0.9161    10.9540 H         1 MOL       0.0000
    780 H228        27.3572     6.5583     2.1722 H         1 MOL       0.0000
    781 H229        20.1051    -6.5523    11.0839 H         1 MOL       0.0000
    782 H230        13.6953     7.9871     2.1610 H         1 MOL       0.0000
    783 H231        13.6133    -0.1258    13.0609 H         1 MOL       0.0000
    784 H232        22.0995     4.3113     0.2717 H         1 MOL       0.0000
    785 H233        19.6394    -3.1849     5.9587 H         1 MOL       0.0000
    786 H234        17.0290     8.7357     7.3624 H         1 MOL       0.0000
    787 H235        10.0211     3.3255     9.0890 H         1 MOL       0.0000
    788 H236        26.7298     2.4697     4.2776 H         1 MOL       0.0000
    789 H237        12.3222     1.8781     5.7552 H         1 MOL       0.0000
    790 H238        14.6538    10.4049     4.1922 H         1 MOL       0.0000
    791 H239        18.1461    11.6798     2.6945 H         1 MOL       0.0000
    792 H240        24.6260    -1.3709     3.4948 H         1 MOL       0.0000
    793 H241        20.8451     6.5788     2.4048 H         1 MOL       0.0000
    794 H242        16.1605    -0.4150    10.8100 H         1 MOL       0.0000
    795 H243        23.3642    -0.5829     9.8595 H         1 MOL       0.0000
    796 H244        21.8831    -1.0520    10.6068 H         1 MOL       0.0000
    797 H245        23.9383     3.8507     8.7606 H         1 MOL       0.0000
    798 H246        23.3686     4.2093     7.1420 H         1 MOL       0.0000
    799 H247        22.8754    -5.5378     9.6694 H         1 MOL       0.0000
    800 H248        21.5962    -4.4372    10.1268 H         1 MOL       0.0000
    801 C249        24.5531     3.8127     4.8351 C         1 MOL       0.0000
    802 C250        12.1840     1.9341     8.4894 C         1 MOL       0.0000
    803 C251        19.8218    -3.2741     8.5917 C         1 MOL       0.0000
    804 C252        16.8163     8.8692     4.7027 C         1 MOL       0.0000
    805 C253        25.4491     3.2084     5.8303 C         1 MOL       0.0000
    806 C254        11.2521     2.5592     7.5123 C         1 MOL       0.0000
    807 C255        20.7620    -3.8885     7.6445 C         1 MOL       0.0000
    808 C256        15.9265     9.5160     5.7025 C         1 MOL       0.0000
    809 C257        25.2003     3.2833     7.2367 C         1 MOL       0.0000
    810 C258        11.4685     2.4392     6.1243 C         1 MOL       0.0000
    811 C259        21.8914    -4.6488     8.0976 C         1 MOL       0.0000
    812 C260        14.8318    10.2890     5.2576 C         1 MOL       0.0000
    813 C261        16.1810     9.3453     7.0574 C         1 MOL       0.0000
    814 C262        20.5142    -3.7563     6.2606 C         1 MOL       0.0000
    815 C263        26.5828     2.5094     5.3546 C         1 MOL       0.0000
    816 C264        10.1519     3.2516     8.0110 C         1 MOL       0.0000
    817 C265        24.7648     0.7270     0.1482 C         1 MOL       0.0000
    818 C266        18.2951    12.5186     0.1732 C         1 MOL       0.0000
    819 C267        22.6143    -0.5759    13.1172 C         1 MOL       0.0000
    820 C268         9.2560     0.9665    13.0978 C         1 MOL       0.0000
    821 C269        19.4992     4.5555     5.7080 C         1 MOL       0.0000
    822 C270        14.7431    -2.5389     7.6261 C         1 MOL       0.0000
    823 C271        19.9940    -4.8842    13.2200 C         1 MOL       0.0000
    824 C272        18.2024    11.0851     0.1357 C         1 MOL       0.0000
    825 C273        21.3164    -1.1927    13.1640 C         1 MOL       0.0000
    826 C274        10.6583     1.3809    13.1223 C         1 MOL       0.0000
    827 C275        24.8042     0.0579     1.3779 C         1 MOL       0.0000
    828 C276        13.6574     6.1583    12.0308 C         1 MOL       0.0000
    829 C277        11.9046     7.3219     1.1661 C         1 MOL       0.0000
    830 C278         8.6232     0.7368    11.8693 C         1 MOL       0.0000
    831 C279        23.3089    -0.3076    11.8838 C         1 MOL       0.0000
    832 C280        13.1938     7.8021     1.2153 C         1 MOL       0.0000
    833 C281        20.1467    -7.0795    12.0329 C         1 MOL       0.0000
    834 C282        24.8259    -1.3432     1.4595 C         1 MOL       0.0000
    835 N41         24.8809    -1.9421     2.6976 N         1 MOL       0.0000
    836 N42         22.7299    -0.4905    10.6448 N         1 MOL       0.0000
    837 N43         24.1195     3.9296     7.7680 N         1 MOL       0.0000
    838 N44         22.2224    -4.8070     9.4150 N         1 MOL       0.0000
    839 O161        23.3768     4.2178     5.2009 O         1 MOL       0.0000
    840 O162        12.9530     0.9833     8.0911 O         1 MOL       0.0000
    841 O163        20.2032    -3.1497     9.8128 O         1 MOL       0.0000
    842 O164        16.7505     9.2989     3.5031 O         1 MOL       0.0000
    843 O165        17.5868     7.9120     5.0892 O         1 MOL       0.0000
    844 O166        18.6513    -2.9057     8.1862 O         1 MOL       0.0000
    845 O167        24.9650     3.8935     3.6234 O         1 MOL       0.0000
    846 O168        12.1420     2.3704     9.6891 O         1 MOL       0.0000
    847 O169        22.2924     3.6386     2.6244 O         1 MOL       0.0000
    848 O170        14.6462     1.4972    10.1894 O         1 MOL       0.0000
    849 O171        23.2312     5.9259     3.0743 O         1 MOL       0.0000
    850 O172        12.8940    -0.2275    10.6821 O         1 MOL       0.0000
    851 O173        17.5006    -3.4354    10.7768 O         1 MOL       0.0000
    852 O174        19.2690     8.4600     3.0049 O         1 MOL       0.0000
    853 O175        18.4545    -1.1739    10.3127 O         1 MOL       0.0000
    854 O176        17.5628     6.7029     2.4875 O         1 MOL       0.0000
    855 O177        20.7203     4.3756     5.3537 O         1 MOL       0.0000
    856 O178        14.0854    -1.5039     8.0043 O         1 MOL       0.0000
    857 O179        19.8718    -4.2896    12.0789 O         1 MOL       0.0000
    858 O180        18.1193    10.3836     1.2309 O         1 MOL       0.0000
    859 O181        20.6739    -1.5015    12.0738 O         1 MOL       0.0000
    860 O182        15.8833     8.5479     1.1708 O         1 MOL       0.0000
    861 O183        15.9049    -2.8334     8.0839 O         1 MOL       0.0000
    862 O184        18.7573     5.4764     5.2146 O         1 MOL       0.0000
    863 O185        25.4121     5.5731     1.2170 O         1 MOL       0.0000
    864 O186        11.2578     1.6127    12.0048 O         1 MOL       0.0000
    865 O187        24.6166     2.8188     1.2464 O         1 MOL       0.0000
    866 O188        13.5260     3.3950    12.0861 O         1 MOL       0.0000
    867 O189        20.4842     6.0301     3.1254 O         1 MOL       0.0000
    868 O190        15.7823    -0.9737    10.1065 O         1 MOL       0.0000
    869 O191        22.9383     4.8049     0.1926 O         1 MOL       0.0000
    870 O192        13.7357     0.8410    13.1209 O         1 MOL       0.0000
    871 H249        19.7154     0.9263     8.6313 H         1 MOL       0.0000
    872 H250         9.3888    10.0133     6.2761 H         1 MOL       0.0000
    873 H251        20.4502     9.6240     5.7246 H         1 MOL       0.0000
    874 H252        20.7083     2.4647     6.9113 H         1 MOL       0.0000
    875 H253        16.0545     3.1862     8.5309 H         1 MOL       0.0000
    876 H254        28.1239    -3.2331     7.1411 H         1 MOL       0.0000
    877 H255        17.3784     1.2807     9.3871 H         1 MOL       0.0000
    878 H256        17.0744     4.7577     6.8521 H         1 MOL       0.0000
    879 H257        21.7925     7.8568     4.6108 H         1 MOL       0.0000
    880 H258        24.2480     7.7545     4.9124 H         1 MOL       0.0000
    881 C283        18.9371     3.6815     6.7651 C         1 MOL       0.0000
    882 C284        17.8236     1.9620     8.6638 C         1 MOL       0.0000
    883 C285        22.2873     8.5891     5.2471 C         1 MOL       0.0000
    884 C286        14.0771    -3.5413     6.7685 C         1 MOL       0.0000
    885 C287        17.6333     3.9072     7.2379 C         1 MOL       0.0000
    886 C288        19.1413     1.7612     8.2328 C         1 MOL       0.0000
    887 C289        21.5295     9.5945     5.8602 C         1 MOL       0.0000
    888 C290         8.3129    10.0403     6.1202 C         1 MOL       0.0000
    889 C291        23.6756     8.5329     5.4137 C         1 MOL       0.0000
    890 C292        28.6837    -4.0438     6.6815 C         1 MOL       0.0000
    891 C293        19.6971     2.6174     7.2815 C         1 MOL       0.0000
    892 C294        17.0720     3.0365     8.1727 C         1 MOL       0.0000
    893 N45         21.1741     9.9065     1.3073 N         1 MOL       0.0000
    894 N46         18.0287     2.0529    13.0135 N         1 MOL       0.0000
    895 C295        20.9954    10.5433     0.1181 C         1 MOL       0.0000
    896 C296        17.2579     2.9727    12.3333 C         1 MOL       0.0000
    897 C297        20.3222     2.1291    11.9706 C         1 MOL       0.0000
    898 C298        20.6673    10.4452     2.5807 C         1 MOL       0.0000
    899 C299        22.1227     8.9680     1.1654 C         1 MOL       0.0000
    900 C300        19.1280     1.2779    12.4134 C         1 MOL       0.0000
    901 H259        15.7558     4.3653    13.1407 H         1 MOL       0.0000
    902 H260        17.5039     3.3095    11.3396 H         1 MOL       0.0000
    903 H261        20.0626     2.8776    11.2168 H         1 MOL       0.0000
    904 H262        20.4645    11.5063     2.4554 H         1 MOL       0.0000
    905 H263        20.8209     2.6324    12.8057 H         1 MOL       0.0000
    906 H264        19.7984     9.9364     2.9460 H         1 MOL       0.0000
    907 H265        21.0397     1.4475    11.4934 H         1 MOL       0.0000
    908 H266        18.7294     0.7369    11.5492 H         1 MOL       0.0000
    909 H267        21.3989    10.2928     3.3624 H         1 MOL       0.0000
    910 H268        22.5836     8.4124     1.9769 H         1 MOL       0.0000
    911 H269        19.4367     0.5510    13.1682 H         1 MOL       0.0000
    912 N47         17.9819     5.9831    13.0392 N         1 MOL       0.0000
    913 C301        16.4618     0.0525     1.7087 C         1 MOL       0.0000
    914 C302        25.3031    -6.0652    10.5375 C         1 MOL       0.0000
    915 O193        29.7350    -0.8265     2.7394 O         1 MOL       0.0000
    916 O194        24.9074    11.0626     1.5218 O         1 MOL       0.0000
    917 O195        17.3685     5.1999    10.4337 O         1 MOL       0.0000
    918 O196        19.9768     5.8909     8.9496 O         1 MOL       0.0000
    919 F49         16.3548     1.3931     2.3899 F         1 MOL       0.0000
    920 F50         25.3210    -3.7929    12.0041 F         1 MOL       0.0000
    921 F51         17.9274     0.8189     0.9335 F         1 MOL       0.0000
    922 F52         15.7168    -0.7804     4.0914 F         1 MOL       0.0000
    923 F53         24.7764    -4.9649    10.1336 F         1 MOL       0.0000
    924 F54         18.2084     7.6057     8.5496 F         1 MOL       0.0000
    925 S17         23.7169    12.7354     1.3996 S         1 MOL       0.0000
    926 S18         18.5723     5.9437    10.8985 S         1 MOL       0.0000
    927 N48         19.2552     1.0171     3.5045 N         1 MOL       0.0000
    928 N49         17.5101     1.8018     4.5863 N         1 MOL       0.0000
    929 C303        20.2569     0.6714     2.4265 C         1 MOL       0.0000
    930 C304        18.3117     1.9743     3.5000 C         1 MOL       0.0000
    931 C305        19.0352     0.1840     4.6209 C         1 MOL       0.0000
    932 C306        20.1441    -0.7221     1.7671 C         1 MOL       0.0000
    933 C307        18.0016     0.7762     5.3206 C         1 MOL       0.0000
    934 C308        16.1629     2.3941     4.8131 C         1 MOL       0.0000
    935 H270        21.2429     0.8001     2.8823 H         1 MOL       0.0000
    936 H271        20.1253     1.4212     1.6455 H         1 MOL       0.0000
    937 H272        18.1562     2.7066     2.7073 H         1 MOL       0.0000
    938 H273        21.0833    -0.9030     1.2251 H         1 MOL       0.0000
    939 H274        19.6878    -0.6253     4.8648 H         1 MOL       0.0000
    940 H275        16.1040     2.8259     5.8160 H         1 MOL       0.0000
    941 H276        15.9040     3.1202     4.0366 H         1 MOL       0.0000
    942 H277        19.9944    -1.5597     2.4597 H         1 MOL       0.0000
    943 H278        17.4869     0.4253     6.2119 H         1 MOL       0.0000
    944 H279        19.3385    -0.7283     1.0265 H         1 MOL       0.0000
    945 H280        15.4548     1.5548     4.7202 H         1 MOL       0.0000
    946 N50         15.5303     0.0080     0.7809 N         1 MOL       0.0000
    947 C309        14.4259    -1.2418     4.0049 C         1 MOL       0.0000
    948 C310        25.1443    -6.9499    11.9225 C         1 MOL       0.0000
    949 O197        12.0721    -4.3054    13.1594 O         1 MOL       0.0000
    950 O198        11.1265    12.0989     2.6393 O         1 MOL       0.0000
    951 O199        12.3076    -6.4783    11.8015 O         1 MOL       0.0000
    952 O200        10.9140    12.6181     0.1321 O         1 MOL       0.0000
    953 F55         13.7166    -1.1627     5.0318 F         1 MOL       0.0000
    954 F56         23.8639    -6.4727    12.6259 F         1 MOL       0.0000
    955 F57         22.5169    11.6916     2.0591 F         1 MOL       0.0000
    956 F58         14.7557    -2.5070     3.8591 F         1 MOL       0.0000
    957 F59         26.6623    -6.0094    10.3418 F         1 MOL       0.0000
    958 F60         19.6471     4.9584    11.4223 F         1 MOL       0.0000
    959 S19         11.5789    -5.5845    12.6636 S         1 MOL       0.0000
    960 S20         10.4223    12.6500     1.5187 S         1 MOL       0.0000
    961 Ti41         8.5096    -5.3932    24.4314 Ti        1 MOL       0.0000
    962 Ti42        19.3400    -2.5120    15.0666 Ti        1 MOL       0.0000
    963 Ti43        12.6063    -9.3294    22.6114 Ti        1 MOL       0.0000
    964 Ti44        14.1174    -0.1673    16.8384 Ti        1 MOL       0.0000
    965 Ti45        13.1189     1.5110    14.9340 Ti        1 MOL       0.0000
    966 Ti46        14.4945    -9.5838    24.5648 Ti        1 MOL       0.0000
    967 Ti47         9.4588    -7.1291    22.5399 Ti        1 MOL       0.0000
    968 Ti48        17.3522    -2.2095    16.9140 Ti        1 MOL       0.0000
    969 H281         9.0114    -1.4961    24.2119 H         1 MOL       0.0000
    970 H282        20.1488    -6.4181    15.3873 H         1 MOL       0.0000
    971 H283         4.5497    -6.1499    24.0490 H         1 MOL       0.0000
    972 H284        22.7222    -0.5077    15.2672 H         1 MOL       0.0000
    973 H285        15.4701   -13.6183    24.1789 H         1 MOL       0.0000
    974 H286         9.0603     0.9211    15.2561 H         1 MOL       0.0000
    975 H287         8.9783    -7.1918    26.1559 H         1 MOL       0.0000
    976 H288        17.4645    -2.7547    13.3666 H         1 MOL       0.0000
    977 H289        15.0044   -10.2509    19.0537 H         1 MOL       0.0000
    978 H290        12.3940     1.6697    20.4573 H         1 MOL       0.0000
    979 H291         5.3861    -3.7405    22.1840 H         1 MOL       0.0000
    980 H292        22.0948    -4.5963    17.3726 H         1 MOL       0.0000
    981 H293         7.6872    -5.1879    18.8502 H         1 MOL       0.0000
    982 H294        10.0188     3.3389    17.2872 H         1 MOL       0.0000
    983 H295        13.5111     4.6138    15.7895 H         1 MOL       0.0000
    984 H296        19.9910    -8.4369    16.5898 H         1 MOL       0.0000
    985 H297        16.2101    -0.4872    15.4998 H         1 MOL       0.0000
    986 H298        11.5255    -7.4810    23.9050 H         1 MOL       0.0000
    987 H299        18.7292    -7.6489    22.9545 H         1 MOL       0.0000
    988 H300        17.2481    -8.1180    23.7018 H         1 MOL       0.0000
    989 H301        19.3033    -3.2153    21.8555 H         1 MOL       0.0000
    990 H302        18.7336    -2.8567    20.2370 H         1 MOL       0.0000
    991 H303        18.2404   -12.6038    22.7644 H         1 MOL       0.0000
    992 H304        16.9612   -11.5032    23.2218 H         1 MOL       0.0000
    993 C311        19.9181    -3.2533    17.9301 C         1 MOL       0.0000
    994 C312         7.5490    -5.1319    21.5844 C         1 MOL       0.0000
    995 C313        15.1867   -10.3401    21.6867 C         1 MOL       0.0000
    996 C314        12.1813     1.8032    17.7978 C         1 MOL       0.0000
    997 C315        20.8141    -3.8576    18.9253 C         1 MOL       0.0000
    998 C316         6.6171    -4.5068    20.6073 C         1 MOL       0.0000
    999 C317        16.1270   -10.9545    20.7395 C         1 MOL       0.0000
   1000 C318        11.2915     2.4500    18.7975 C         1 MOL       0.0000
   1001 C319        20.5653    -3.7827    20.3317 C         1 MOL       0.0000
   1002 C320         6.8335    -4.6268    19.2193 C         1 MOL       0.0000
   1003 C321        17.2564   -11.7148    21.1926 C         1 MOL       0.0000
   1004 C322        10.1968     3.2230    18.3526 C         1 MOL       0.0000
   1005 C323        11.5460     2.2792    20.1524 C         1 MOL       0.0000
   1006 C324        15.8792   -10.8223    19.3556 C         1 MOL       0.0000
   1007 C325        21.9478    -4.5566    18.4496 C         1 MOL       0.0000
   1008 C326         5.5170    -3.8144    21.1060 C         1 MOL       0.0000
   1009 C327        20.1298    -6.3390    13.2432 C         1 MOL       0.0000
   1010 C328        13.6601     5.4526    13.2682 C         1 MOL       0.0000
   1011 C329        17.9793    -7.6419    26.2122 C         1 MOL       0.0000
   1012 C330         4.6210    -6.0995    26.1928 C         1 MOL       0.0000
   1013 C331        14.8642    -2.5105    18.8030 C         1 MOL       0.0000
   1014 C332        10.1081    -9.6049    20.7211 C         1 MOL       0.0000
   1015 C333        15.3590   -11.9502    26.3150 C         1 MOL       0.0000
   1016 C334        13.5674     4.0191    13.2307 C         1 MOL       0.0000
   1017 C335        16.6814    -8.2587    26.2590 C         1 MOL       0.0000
   1018 C336         6.0233    -5.6851    26.2173 C         1 MOL       0.0000
   1019 C337        20.1692    -7.0081    14.4729 C         1 MOL       0.0000
   1020 C338         9.0224    -0.9077    25.1258 C         1 MOL       0.0000
   1021 C339         7.2696     0.2559    14.2611 C         1 MOL       0.0000
   1022 C340         3.9882    -6.3292    24.9643 C         1 MOL       0.0000
   1023 C341        18.6739    -7.3736    24.9788 C         1 MOL       0.0000
   1024 C342         8.5588     0.7361    14.3103 C         1 MOL       0.0000
   1025 C343        15.5117   -14.1455    25.1279 C         1 MOL       0.0000
   1026 C344        20.1909    -8.4092    14.5545 C         1 MOL       0.0000
   1027 N51         20.2459    -9.0081    15.7926 N         1 MOL       0.0000
   1028 N52         18.0949    -7.5564    23.7398 N         1 MOL       0.0000
   1029 N53         19.4844    -3.1364    20.8630 N         1 MOL       0.0000
   1030 N54         17.5874   -11.8730    22.5100 N         1 MOL       0.0000
   1031 O201        18.7418    -2.8482    18.2959 O         1 MOL       0.0000
   1032 O202         8.3180    -6.0827    21.1861 O         1 MOL       0.0000
   1033 O203        15.5682   -10.2157    22.9078 O         1 MOL       0.0000
   1034 O204        12.1155     2.2329    16.5982 O         1 MOL       0.0000
   1035 O205        12.9518     0.8460    18.1842 O         1 MOL       0.0000
   1036 O206        14.0163    -9.9717    21.2812 O         1 MOL       0.0000
   1037 O207        20.3300    -3.1725    16.7184 O         1 MOL       0.0000
   1038 O208         7.5070    -4.6956    22.7841 O         1 MOL       0.0000
   1039 O209        17.6574    -3.4274    15.7194 O         1 MOL       0.0000
   1040 O210        10.0112    -5.5688    23.2844 O         1 MOL       0.0000
   1041 O211        18.5962    -1.1401    16.1693 O         1 MOL       0.0000
   1042 O212         8.2590    -7.2935    23.7771 O         1 MOL       0.0000
   1043 O213        12.8655   -10.5014    23.8718 O         1 MOL       0.0000
   1044 O214        14.6340     1.3940    16.0999 O         1 MOL       0.0000
   1045 O215        13.8195    -8.2399    23.4077 O         1 MOL       0.0000
   1046 O216        12.9278    -0.3631    15.5825 O         1 MOL       0.0000
   1047 O217        16.0853    -2.6904    18.4487 O         1 MOL       0.0000
   1048 O218         9.4504    -8.5699    21.0993 O         1 MOL       0.0000
   1049 O219        15.2368   -11.3556    25.1739 O         1 MOL       0.0000
   1050 O220        13.4843     3.3176    14.3259 O         1 MOL       0.0000
   1051 O221        16.0389    -8.5675    25.1688 O         1 MOL       0.0000
   1052 O222        11.2483     1.4819    14.2658 O         1 MOL       0.0000
   1053 O223        11.2699    -9.8994    21.1789 O         1 MOL       0.0000
   1054 O224        14.1223    -1.5896    18.3096 O         1 MOL       0.0000
   1055 O225        20.7771    -1.4929    14.3120 O         1 MOL       0.0000
   1056 O226         6.6228    -5.4533    25.0998 O         1 MOL       0.0000
   1057 O227        19.9816    -4.2472    14.3414 O         1 MOL       0.0000
   1058 O228         8.8910    -3.6709    25.1811 O         1 MOL       0.0000
   1059 O229        15.8492    -1.0359    16.2204 O         1 MOL       0.0000
   1060 O230        11.1473    -8.0397    23.2015 O         1 MOL       0.0000
   1061 O231        18.3033    -2.2611    13.2876 O         1 MOL       0.0000
   1062 O232         9.1007    -6.2250    26.2159 O         1 MOL       0.0000
   1063 H305        15.0804    -6.1397    21.7263 H         1 MOL       0.0000
   1064 H306         4.7538     2.9473    19.3711 H         1 MOL       0.0000
   1065 H307        15.8152     2.5580    18.8196 H         1 MOL       0.0000
   1066 H308        16.0733    -4.6013    20.0063 H         1 MOL       0.0000
   1067 H309        11.4195    -3.8798    21.6259 H         1 MOL       0.0000
   1068 H310        23.4889   -10.2991    20.2361 H         1 MOL       0.0000
   1069 H311        12.7434    -5.7853    22.4821 H         1 MOL       0.0000
   1070 H312        12.4394    -2.3083    19.9471 H         1 MOL       0.0000
   1071 H313        17.1575     0.7908    17.7058 H         1 MOL       0.0000
   1072 H314        19.6130     0.6885    18.0074 H         1 MOL       0.0000
   1073 C345        14.3021    -3.3845    19.8601 C         1 MOL       0.0000
   1074 C346        13.1886    -5.1040    21.7588 C         1 MOL       0.0000
   1075 C347        17.6523     1.5231    18.3421 C         1 MOL       0.0000
   1076 C348         9.4421   -10.6073    19.8635 C         1 MOL       0.0000
   1077 C349        12.9983    -3.1588    20.3329 C         1 MOL       0.0000
   1078 C350        14.5063    -5.3048    21.3278 C         1 MOL       0.0000
   1079 C351        16.8945     2.5285    18.9552 C         1 MOL       0.0000
   1080 C352         3.6779     2.9743    19.2152 C         1 MOL       0.0000
   1081 C353        19.0406     1.4669    18.5087 C         1 MOL       0.0000
   1082 C354        24.0487   -11.1098    19.7765 C         1 MOL       0.0000
   1083 C355        15.0621    -4.4486    20.3765 C         1 MOL       0.0000
   1084 C356        12.4370    -4.0295    21.2677 C         1 MOL       0.0000
   1085 N55         16.5391     2.8405    14.4023 N         1 MOL       0.0000
   1086 N56         13.3937    -5.0131    26.1085 N         1 MOL       0.0000
   1087 C357        16.3604     3.4773    13.2131 C         1 MOL       0.0000
   1088 C358        12.6229    -4.0933    25.4283 C         1 MOL       0.0000
   1089 C359        15.6872    -4.9369    25.0656 C         1 MOL       0.0000
   1090 C360        16.0323     3.3792    15.6757 C         1 MOL       0.0000
   1091 C361        17.4877     1.9020    14.2604 C         1 MOL       0.0000
   1092 C362        14.4930    -5.7881    25.5084 C         1 MOL       0.0000
   1093 H315        11.1208    -2.7007    26.2357 H         1 MOL       0.0000
   1094 H316        12.8689    -3.7565    24.4346 H         1 MOL       0.0000
   1095 H317        15.4276    -4.1884    24.3118 H         1 MOL       0.0000
   1096 H318        15.8295     4.4403    15.5504 H         1 MOL       0.0000
   1097 H319        16.1859    -4.4336    25.9007 H         1 MOL       0.0000
   1098 H320        15.1634     2.8704    16.0410 H         1 MOL       0.0000
   1099 H321        16.4047    -5.6185    24.5884 H         1 MOL       0.0000
   1100 H322        14.0944    -6.3291    24.6442 H         1 MOL       0.0000
   1101 H323        16.7639     3.2268    16.4574 H         1 MOL       0.0000
   1102 H324        17.9486     1.3464    15.0719 H         1 MOL       0.0000
   1103 H325        14.8017    -6.5150    26.2632 H         1 MOL       0.0000
   1104 N57         13.3469    -1.0829    26.1342 N         1 MOL       0.0000
   1105 C363        11.8268    -7.0135    14.8037 C         1 MOL       0.0000
   1106 C364        20.6681   -13.1312    23.6325 C         1 MOL       0.0000
   1107 O233        25.1000    -7.8925    15.8344 O         1 MOL       0.0000
   1108 O234        20.2724     3.9966    14.6168 O         1 MOL       0.0000
   1109 O235        12.7335    -1.8661    23.5287 O         1 MOL       0.0000
   1110 O236        15.3418    -1.1751    22.0446 O         1 MOL       0.0000
   1111 F61         11.7198    -5.6729    15.4849 F         1 MOL       0.0000
   1112 F62         20.6860   -10.8589    25.0991 F         1 MOL       0.0000
   1113 F63         13.2924    -6.2471    14.0285 F         1 MOL       0.0000
   1114 F64         11.0818    -7.8464    17.1864 F         1 MOL       0.0000
   1115 F65         20.1414   -12.0309    23.2286 F         1 MOL       0.0000
   1116 F66         13.5734     0.5397    21.6446 F         1 MOL       0.0000
   1117 S21         19.0819     5.6694    14.4946 S         1 MOL       0.0000
   1118 S22         13.9373    -1.1223    23.9935 S         1 MOL       0.0000
   1119 N58         14.6202    -6.0489    16.5995 N         1 MOL       0.0000
   1120 N59         12.8751    -5.2642    17.6813 N         1 MOL       0.0000
   1121 C365        15.6219    -6.3946    15.5215 C         1 MOL       0.0000
   1122 C366        13.6767    -5.0917    16.5950 C         1 MOL       0.0000
   1123 C367        14.4002    -6.8820    17.7159 C         1 MOL       0.0000
   1124 C368        15.5091    -7.7881    14.8621 C         1 MOL       0.0000
   1125 C369        13.3666    -6.2898    18.4156 C         1 MOL       0.0000
   1126 C370        11.5279    -4.6719    17.9081 C         1 MOL       0.0000
   1127 H326        16.6079    -6.2659    15.9773 H         1 MOL       0.0000
   1128 H327        15.4903    -5.6448    14.7405 H         1 MOL       0.0000
   1129 H328        13.5212    -4.3594    15.8023 H         1 MOL       0.0000
   1130 H329        16.4483    -7.9690    14.3201 H         1 MOL       0.0000
   1131 H330        15.0528    -7.6913    17.9598 H         1 MOL       0.0000
   1132 H331        11.4690    -4.2401    18.9110 H         1 MOL       0.0000
   1133 H332        11.2690    -3.9458    17.1316 H         1 MOL       0.0000
   1134 H333        15.3594    -8.6257    15.5547 H         1 MOL       0.0000
   1135 H334        12.8519    -6.6407    19.3069 H         1 MOL       0.0000
   1136 H335        14.7035    -7.7943    14.1215 H         1 MOL       0.0000
   1137 H336        10.8198    -5.5112    17.8152 H         1 MOL       0.0000
   1138 N60         10.8953    -7.0580    13.8759 N         1 MOL       0.0000
   1139 C371         9.7909    -8.3078    17.0999 C         1 MOL       0.0000
   1140 C372        20.5093   -14.0159    25.0175 C         1 MOL       0.0000
   1141 O237         7.4371   -11.3714    26.2544 O         1 MOL       0.0000
   1142 O238         6.4915     5.0329    15.7343 O         1 MOL       0.0000
   1143 O239         7.6726   -13.5443    24.8965 O         1 MOL       0.0000
   1144 O240         6.2790     5.5521    13.2271 O         1 MOL       0.0000
   1145 F67          9.0816    -8.2287    18.1268 F         1 MOL       0.0000
   1146 F68         19.2289   -13.5387    25.7209 F         1 MOL       0.0000
   1147 F69         17.8819     4.6256    15.1541 F         1 MOL       0.0000
   1148 F70         10.1207    -9.5730    16.9541 F         1 MOL       0.0000
   1149 F71         22.0273   -13.0754    23.4368 F         1 MOL       0.0000
   1150 F72         15.0121    -2.1076    24.5173 F         1 MOL       0.0000
   1151 S23          6.9439   -12.6505    25.7586 S         1 MOL       0.0000
   1152 S24          5.7873     5.5840    14.6137 S         1 MOL       0.0000
   1153 Ti49         6.6276    16.2858    11.2794 Ti        1 MOL       0.0000
   1154 Ti50        17.4580    19.1670     1.9146 Ti        1 MOL       0.0000
   1155 Ti51        10.7242    12.3496     9.4594 Ti        1 MOL       0.0000
   1156 Ti52        12.2354    21.5117     3.6864 Ti        1 MOL       0.0000
   1157 Ti53        11.2369    23.1900     1.7820 Ti        1 MOL       0.0000
   1158 Ti54        12.6125    12.0952    11.4128 Ti        1 MOL       0.0000
   1159 Ti55         7.5768    14.5499     9.3879 Ti        1 MOL       0.0000
   1160 Ti56        15.4702    19.4695     3.7621 Ti        1 MOL       0.0000
   1161 H337         7.1294    20.1828    11.0599 H         1 MOL       0.0000
   1162 H338        18.2668    15.2609     2.2353 H         1 MOL       0.0000
   1163 H339         2.6677    15.5291    10.8970 H         1 MOL       0.0000
   1164 H340        20.8402    21.1713     2.1152 H         1 MOL       0.0000
   1165 H341        13.5881     8.0607    11.0269 H         1 MOL       0.0000
   1166 H342         7.1783    22.6001     2.1040 H         1 MOL       0.0000
   1167 H343         7.0963    14.4872    13.0039 H         1 MOL       0.0000
   1168 H344        15.5825    18.9243     0.2147 H         1 MOL       0.0000
   1169 H345        13.1224    11.4281     5.9017 H         1 MOL       0.0000
   1170 H346        10.5120    23.3487     7.3053 H         1 MOL       0.0000
   1171 H347         3.5041    17.9385     9.0320 H         1 MOL       0.0000
   1172 H348        20.2128    17.0826     4.2206 H         1 MOL       0.0000
   1173 H349         5.8052    16.4911     5.6982 H         1 MOL       0.0000
   1174 H350         8.1368    25.0179     4.1352 H         1 MOL       0.0000
   1175 H351        11.6291    26.2928     2.6375 H         1 MOL       0.0000
   1176 H352        18.1090    13.2421     3.4378 H         1 MOL       0.0000
   1177 H353        14.3281    21.1918     2.3478 H         1 MOL       0.0000
   1178 H354         9.6435    14.1980    10.7530 H         1 MOL       0.0000
   1179 H355        16.8472    14.0301     9.8025 H         1 MOL       0.0000
   1180 H356        15.3661    13.5610    10.5498 H         1 MOL       0.0000
   1181 H357        17.4213    18.4637     8.7035 H         1 MOL       0.0000
   1182 H358        16.8516    18.8223     7.0850 H         1 MOL       0.0000
   1183 H359        16.3584     9.0752     9.6124 H         1 MOL       0.0000
   1184 H360        15.0792    10.1758    10.0698 H         1 MOL       0.0000
   1185 C373        18.0361    18.4257     4.7781 C         1 MOL       0.0000
   1186 C374         5.6670    16.5472     8.4324 C         1 MOL       0.0000
   1187 C375        13.3048    11.3389     8.5347 C         1 MOL       0.0000
   1188 C376        10.2993    23.4822     4.6457 C         1 MOL       0.0000
   1189 C377        18.9321    17.8214     5.7733 C         1 MOL       0.0000
   1190 C378         4.7351    17.1722     7.4553 C         1 MOL       0.0000
   1191 C379        14.2450    10.7245     7.5875 C         1 MOL       0.0000
   1192 C380         9.4095    24.1290     5.6455 C         1 MOL       0.0000
   1193 C381        18.6833    17.8963     7.1797 C         1 MOL       0.0000
   1194 C382         4.9515    17.0522     6.0673 C         1 MOL       0.0000
   1195 C383        15.3744     9.9642     8.0406 C         1 MOL       0.0000
   1196 C384         8.3148    24.9020     5.2006 C         1 MOL       0.0000
   1197 C385         9.6640    23.9582     7.0004 C         1 MOL       0.0000
   1198 C386        13.9972    10.8566     6.2036 C         1 MOL       0.0000
   1199 C387        20.0658    17.1224     5.2976 C         1 MOL       0.0000
   1200 C388         3.6349    17.8646     7.9540 C         1 MOL       0.0000
   1201 C389        18.2478    15.3400     0.0912 C         1 MOL       0.0000
   1202 C390        11.7781    27.1316     0.1162 C         1 MOL       0.0000
   1203 C391        16.0973    14.0371    13.0602 C         1 MOL       0.0000
   1204 C392         2.7390    15.5795    13.0408 C         1 MOL       0.0000
   1205 C393        12.9822    19.1685     5.6510 C         1 MOL       0.0000
   1206 C394         8.2261    12.0742     7.5691 C         1 MOL       0.0000
   1207 C395        13.4770     9.7288    13.1630 C         1 MOL       0.0000
   1208 C396        11.6854    25.6981     0.0787 C         1 MOL       0.0000
   1209 C397        14.7995    13.4203    13.1070 C         1 MOL       0.0000
   1210 C398         4.1413    15.9939    13.0653 C         1 MOL       0.0000
   1211 C399        18.2872    14.6709     1.3209 C         1 MOL       0.0000
   1212 C400         7.1404    20.7713    11.9738 C         1 MOL       0.0000
   1213 C401         5.3876    21.9349     1.1091 C         1 MOL       0.0000
   1214 C402         2.1062    15.3498    11.8123 C         1 MOL       0.0000
   1215 C403        16.7919    14.3054    11.8268 C         1 MOL       0.0000
   1216 C404         6.6768    22.4151     1.1583 C         1 MOL       0.0000
   1217 C405        13.6297     7.5335    11.9759 C         1 MOL       0.0000
   1218 C406        18.3089    13.2698     1.4025 C         1 MOL       0.0000
   1219 N61         18.3639    12.6709     2.6406 N         1 MOL       0.0000
   1220 N62         16.2129    14.1226    10.5878 N         1 MOL       0.0000
   1221 N63         17.6025    18.5426     7.7110 N         1 MOL       0.0000
   1222 N64         15.7054     9.8060     9.3580 N         1 MOL       0.0000
   1223 O241        16.8598    18.8308     5.1439 O         1 MOL       0.0000
   1224 O242         6.4360    15.5963     8.0341 O         1 MOL       0.0000
   1225 O243        13.6862    11.4633     9.7558 O         1 MOL       0.0000
   1226 O244        10.2335    23.9119     3.4461 O         1 MOL       0.0000
   1227 O245        11.0698    22.5250     5.0322 O         1 MOL       0.0000
   1228 O246        12.1343    11.7073     8.1292 O         1 MOL       0.0000
   1229 O247        18.4480    18.5065     3.5664 O         1 MOL       0.0000
   1230 O248         5.6250    16.9834     9.6321 O         1 MOL       0.0000
   1231 O249        15.7754    18.2516     2.5674 O         1 MOL       0.0000
   1232 O250         8.1292    16.1102    10.1324 O         1 MOL       0.0000
   1233 O251        16.7142    20.5389     3.0173 O         1 MOL       0.0000
   1234 O252         6.3770    14.3855    10.6251 O         1 MOL       0.0000
   1235 O253        10.9835    11.1776    10.7198 O         1 MOL       0.0000
   1236 O254        12.7520    23.0730     2.9479 O         1 MOL       0.0000
   1237 O255        11.9375    13.4391    10.2557 O         1 MOL       0.0000
   1238 O256        11.0458    21.3159     2.4305 O         1 MOL       0.0000
   1239 O257        14.2033    18.9886     5.2967 O         1 MOL       0.0000
   1240 O258         7.5684    13.1091     7.9473 O         1 MOL       0.0000
   1241 O259        13.3548    10.3234    12.0219 O         1 MOL       0.0000
   1242 O260        11.6023    24.9966     1.1739 O         1 MOL       0.0000
   1243 O261        14.1569    13.1115    12.0168 O         1 MOL       0.0000
   1244 O262         9.3663    23.1609     1.1138 O         1 MOL       0.0000
   1245 O263         9.3879    11.7796     8.0269 O         1 MOL       0.0000
   1246 O264        12.2403    20.0894     5.1576 O         1 MOL       0.0000
   1247 O265        18.8951    20.1861     1.1600 O         1 MOL       0.0000
   1248 O266         4.7408    16.2257    11.9478 O         1 MOL       0.0000
   1249 O267        18.0995    17.4318     1.1894 O         1 MOL       0.0000
   1250 O268         7.0090    18.0080    12.0291 O         1 MOL       0.0000
   1251 O269        13.9672    20.6431     3.0684 O         1 MOL       0.0000
   1252 O270         9.2653    13.6393    10.0495 O         1 MOL       0.0000
   1253 O271        16.4213    19.4179     0.1356 O         1 MOL       0.0000
   1254 O272         7.2187    15.4540    13.0639 O         1 MOL       0.0000
   1255 H361        13.1984    15.5393     8.5743 H         1 MOL       0.0000
   1256 H362         2.8718    24.6263     6.2191 H         1 MOL       0.0000
   1257 H363        13.9332    24.2370     5.6676 H         1 MOL       0.0000
   1258 H364        14.1913    17.0777     6.8543 H         1 MOL       0.0000
   1259 H365         9.5375    17.7992     8.4739 H         1 MOL       0.0000
   1260 H366        21.6069    11.3799     7.0841 H         1 MOL       0.0000
   1261 H367        10.8614    15.8937     9.3301 H         1 MOL       0.0000
   1262 H368        10.5574    19.3707     6.7951 H         1 MOL       0.0000
   1263 H369        15.2755    22.4698     4.5538 H         1 MOL       0.0000
   1264 H370        17.7310    22.3675     4.8554 H         1 MOL       0.0000
   1265 C407        12.4201    18.2945     6.7081 C         1 MOL       0.0000
   1266 C408        11.3066    16.5750     8.6068 C         1 MOL       0.0000
   1267 C409        15.7703    23.2021     5.1901 C         1 MOL       0.0000
   1268 C410         7.5601    11.0717     6.7115 C         1 MOL       0.0000
   1269 C411        11.1163    18.5202     7.1809 C         1 MOL       0.0000
   1270 C412        12.6243    16.3742     8.1758 C         1 MOL       0.0000
   1271 C413        15.0125    24.2075     5.8032 C         1 MOL       0.0000
   1272 C414         1.7959    24.6533     6.0632 C         1 MOL       0.0000
   1273 C415        17.1586    23.1459     5.3567 C         1 MOL       0.0000
   1274 C416        22.1667    10.5692     6.6245 C         1 MOL       0.0000
   1275 C417        13.1801    17.2304     7.2245 C         1 MOL       0.0000
   1276 C418        10.5550    17.6495     8.1157 C         1 MOL       0.0000
   1277 N65         14.6571    24.5195     1.2503 N         1 MOL       0.0000
   1278 N66         11.5117    16.6659    12.9565 N         1 MOL       0.0000
   1279 C419        14.4784    25.1563     0.0611 C         1 MOL       0.0000
   1280 C420        10.7409    17.5857    12.2763 C         1 MOL       0.0000
   1281 C421        13.8052    16.7421    11.9136 C         1 MOL       0.0000
   1282 C422        14.1503    25.0582     2.5237 C         1 MOL       0.0000
   1283 C423        15.6057    23.5810     1.1084 C         1 MOL       0.0000
   1284 C424        12.6110    15.8909    12.3564 C         1 MOL       0.0000
   1285 H371         9.2388    18.9783    13.0837 H         1 MOL       0.0000
   1286 H372        10.9869    17.9225    11.2826 H         1 MOL       0.0000
   1287 H373        13.5456    17.4906    11.1598 H         1 MOL       0.0000
   1288 H374        13.9475    26.1193     2.3984 H         1 MOL       0.0000
   1289 H375        14.3039    17.2454    12.7487 H         1 MOL       0.0000
   1290 H376        13.2814    24.5494     2.8890 H         1 MOL       0.0000
   1291 H377        14.5227    16.0605    11.4364 H         1 MOL       0.0000
   1292 H378        12.2124    15.3499    11.4922 H         1 MOL       0.0000
   1293 H379        14.8819    24.9058     3.3054 H         1 MOL       0.0000
   1294 H380        16.0666    23.0254     1.9199 H         1 MOL       0.0000
   1295 H381        12.9197    15.1640    13.1112 H         1 MOL       0.0000
   1296 N67         11.4649    20.5961    12.9822 N         1 MOL       0.0000
   1297 C425         9.9448    14.6655     1.6517 C         1 MOL       0.0000
   1298 C426        18.7861     8.5478    10.4805 C         1 MOL       0.0000
   1299 O273        23.2180    13.7865     2.6824 O         1 MOL       0.0000
   1300 O274        18.3904    25.6756     1.4648 O         1 MOL       0.0000
   1301 O275        10.8515    19.8129    10.3767 O         1 MOL       0.0000
   1302 O276        13.4598    20.5039     8.8926 O         1 MOL       0.0000
   1303 F73          9.8378    16.0061     2.3329 F         1 MOL       0.0000
   1304 F74         18.8040    10.8201    11.9471 F         1 MOL       0.0000
   1305 F75         11.4104    15.4319     0.8765 F         1 MOL       0.0000
   1306 F76          9.1998    13.8326     4.0344 F         1 MOL       0.0000
   1307 F77         18.2594     9.6481    10.0766 F         1 MOL       0.0000
   1308 F78         11.6914    22.2187     8.4926 F         1 MOL       0.0000
   1309 S25         17.1999    27.3484     1.3426 S         1 MOL       0.0000
   1310 S26         12.0553    20.5567    10.8415 S         1 MOL       0.0000
   1311 N68         12.7382    15.6301     3.4475 N         1 MOL       0.0000
   1312 N69         10.9931    16.4148     4.5293 N         1 MOL       0.0000
   1313 C427        13.7399    15.2844     2.3695 C         1 MOL       0.0000
   1314 C428        11.7947    16.5873     3.4430 C         1 MOL       0.0000
   1315 C429        12.5182    14.7970     4.5639 C         1 MOL       0.0000
   1316 C430        13.6271    13.8909     1.7101 C         1 MOL       0.0000
   1317 C431        11.4846    15.3892     5.2636 C         1 MOL       0.0000
   1318 C432         9.6459    17.0071     4.7561 C         1 MOL       0.0000
   1319 H382        14.7259    15.4131     2.8253 H         1 MOL       0.0000
   1320 H383        13.6083    16.0342     1.5885 H         1 MOL       0.0000
   1321 H384        11.6392    17.3196     2.6503 H         1 MOL       0.0000
   1322 H385        14.5663    13.7100     1.1681 H         1 MOL       0.0000
   1323 H386        13.1708    13.9877     4.8078 H         1 MOL       0.0000
   1324 H387         9.5870    17.4389     5.7590 H         1 MOL       0.0000
   1325 H388         9.3870    17.7332     3.9796 H         1 MOL       0.0000
   1326 H389        13.4774    13.0533     2.4027 H         1 MOL       0.0000
   1327 H390        10.9699    15.0383     6.1549 H         1 MOL       0.0000
   1328 H391        12.8215    13.8847     0.9695 H         1 MOL       0.0000
   1329 H392         8.9378    16.1678     4.6632 H         1 MOL       0.0000
   1330 N70          9.0133    14.6210     0.7239 N         1 MOL       0.0000
   1331 C433         7.9089    13.3712     3.9479 C         1 MOL       0.0000
   1332 C434        18.6273     7.6631    11.8655 C         1 MOL       0.0000
   1333 O277         5.5551    10.3076    13.1024 O         1 MOL       0.0000
   1334 O278         4.6095    26.7119     2.5823 O         1 MOL       0.0000
   1335 O279         5.7906     8.1347    11.7445 O         1 MOL       0.0000
   1336 O280         4.3970    27.2311     0.0751 O         1 MOL       0.0000
   1337 F79          7.1996    13.4503     4.9748 F         1 MOL       0.0000
   1338 F80         17.3469     8.1403    12.5689 F         1 MOL       0.0000
   1339 F81         15.9999    26.3046     2.0021 F         1 MOL       0.0000
   1340 F82          8.2387    12.1060     3.8021 F         1 MOL       0.0000
   1341 F83         20.1453     8.6036    10.2848 F         1 MOL       0.0000
   1342 F84         13.1301    19.5714    11.3653 F         1 MOL       0.0000
   1343 S27          5.0619     9.0285    12.6066 S         1 MOL       0.0000
   1344 S28          3.9053    27.2630     1.4617 S         1 MOL       0.0000
   1345 Ti57         1.9926     9.2198    24.3744 Ti        1 MOL       0.0000
   1346 Ti58        12.8230    12.1010    15.0096 Ti        1 MOL       0.0000
   1347 Ti59         6.0892     5.2836    22.5544 Ti        1 MOL       0.0000
   1348 Ti60         7.6004    14.4457    16.7814 Ti        1 MOL       0.0000
   1349 Ti61         6.6019    16.1240    14.8770 Ti        1 MOL       0.0000
   1350 Ti62         7.9775     5.0292    24.5078 Ti        1 MOL       0.0000
   1351 Ti63         2.9418     7.4839    22.4829 Ti        1 MOL       0.0000
   1352 Ti64        10.8352    12.4035    16.8571 Ti        1 MOL       0.0000
   1353 H393         2.4944    13.1168    24.1549 H         1 MOL       0.0000
   1354 H394        13.6318     8.1949    15.3303 H         1 MOL       0.0000
   1355 H395        -1.9673     8.4631    23.9920 H         1 MOL       0.0000
   1356 H396        16.2052    14.1053    15.2102 H         1 MOL       0.0000
   1357 H397         8.9531     0.9947    24.1219 H         1 MOL       0.0000
   1358 H398         2.5433    15.5341    15.1991 H         1 MOL       0.0000
   1359 H399         2.4613     7.4212    26.0989 H         1 MOL       0.0000
   1360 H400        10.9475    11.8583    13.3096 H         1 MOL       0.0000
   1361 H401         8.4874     4.3621    18.9967 H         1 MOL       0.0000
   1362 H402         5.8770    16.2827    20.4003 H         1 MOL       0.0000
   1363 H403        -1.1309    10.8725    22.1270 H         1 MOL       0.0000
   1364 H404        15.5778    10.0166    17.3156 H         1 MOL       0.0000
   1365 H405         1.1702     9.4251    18.7932 H         1 MOL       0.0000
   1366 H406         3.5018    17.9519    17.2302 H         1 MOL       0.0000
   1367 H407         6.9941    19.2268    15.7325 H         1 MOL       0.0000
   1368 H408        13.4740     6.1761    16.5328 H         1 MOL       0.0000
   1369 H409         9.6931    14.1258    15.4428 H         1 MOL       0.0000
   1370 H410         5.0085     7.1320    23.8480 H         1 MOL       0.0000
   1371 H411        12.2122     6.9641    22.8975 H         1 MOL       0.0000
   1372 H412        10.7311     6.4950    23.6448 H         1 MOL       0.0000
   1373 H413        12.7863    11.3977    21.7985 H         1 MOL       0.0000
   1374 H414        12.2166    11.7563    20.1800 H         1 MOL       0.0000
   1375 H415        11.7234     2.0092    22.7074 H         1 MOL       0.0000
   1376 H416        10.4442     3.1098    23.1648 H         1 MOL       0.0000
   1377 C435        13.4011    11.3597    17.8731 C         1 MOL       0.0000
   1378 C436         1.0320     9.4811    21.5274 C         1 MOL       0.0000
   1379 C437         8.6698     4.2729    21.6297 C         1 MOL       0.0000
   1380 C438         5.6643    16.4162    17.7407 C         1 MOL       0.0000
   1381 C439        14.2971    10.7554    18.8683 C         1 MOL       0.0000
   1382 C440         0.1001    10.1062    20.5503 C         1 MOL       0.0000
   1383 C441         9.6100     3.6585    20.6825 C         1 MOL       0.0000
   1384 C442         4.7745    17.0630    18.7405 C         1 MOL       0.0000
   1385 C443        14.0483    10.8303    20.2747 C         1 MOL       0.0000
   1386 C444         0.3165     9.9862    19.1623 C         1 MOL       0.0000
   1387 C445        10.7394     2.8982    21.1356 C         1 MOL       0.0000
   1388 C446         3.6798    17.8360    18.2956 C         1 MOL       0.0000
   1389 C447         5.0290    16.8923    20.0954 C         1 MOL       0.0000
   1390 C448         9.3622     3.7906    19.2986 C         1 MOL       0.0000
   1391 C449        15.4308    10.0564    18.3926 C         1 MOL       0.0000
   1392 C450        -1.0001    10.7986    21.0490 C         1 MOL       0.0000
   1393 C451        13.6128     8.2740    13.1862 C         1 MOL       0.0000
   1394 C452         7.1431    20.0656    13.2112 C         1 MOL       0.0000
   1395 C453        11.4623     6.9711    26.1552 C         1 MOL       0.0000
   1396 C454        -1.8960     8.5135    26.1358 C         1 MOL       0.0000
   1397 C455         8.3472    12.1025    18.7460 C         1 MOL       0.0000
   1398 C456         3.5911     5.0082    20.6641 C         1 MOL       0.0000
   1399 C457         8.8420     2.6628    26.2580 C         1 MOL       0.0000
   1400 C458         7.0504    18.6321    13.1737 C         1 MOL       0.0000
   1401 C459        10.1645     6.3543    26.2020 C         1 MOL       0.0000
   1402 C460        -0.4937     8.9279    26.1603 C         1 MOL       0.0000
   1403 C461        13.6522     7.6049    14.4159 C         1 MOL       0.0000
   1404 C462         2.5054    13.7053    25.0688 C         1 MOL       0.0000
   1405 C463         0.7526    14.8689    14.2041 C         1 MOL       0.0000
   1406 C464        -2.5288     8.2838    24.9073 C         1 MOL       0.0000
   1407 C465        12.1569     7.2394    24.9218 C         1 MOL       0.0000
   1408 C466         2.0418    15.3491    14.2533 C         1 MOL       0.0000
   1409 C467         8.9947     0.4675    25.0709 C         1 MOL       0.0000
   1410 C468        13.6739     6.2038    14.4975 C         1 MOL       0.0000
   1411 N71         13.7289     5.6049    15.7356 N         1 MOL       0.0000
   1412 N72         11.5779     7.0566    23.6828 N         1 MOL       0.0000
   1413 N73         12.9675    11.4766    20.8060 N         1 MOL       0.0000
   1414 N74         11.0704     2.7400    22.4530 N         1 MOL       0.0000
   1415 O281        12.2248    11.7648    18.2389 O         1 MOL       0.0000
   1416 O282         1.8010     8.5303    21.1291 O         1 MOL       0.0000
   1417 O283         9.0512     4.3973    22.8508 O         1 MOL       0.0000
   1418 O284         5.5985    16.8459    16.5412 O         1 MOL       0.0000
   1419 O285         6.4348    15.4590    18.1272 O         1 MOL       0.0000
   1420 O286         7.4993     4.6413    21.2242 O         1 MOL       0.0000
   1421 O287        13.8130    11.4405    16.6614 O         1 MOL       0.0000
   1422 O288         0.9900     9.9174    22.7271 O         1 MOL       0.0000
   1423 O289        11.1404    11.1856    15.6624 O         1 MOL       0.0000
   1424 O290         3.4942     9.0442    23.2274 O         1 MOL       0.0000
   1425 O291        12.0792    13.4729    16.1123 O         1 MOL       0.0000
   1426 O292         1.7420     7.3195    23.7201 O         1 MOL       0.0000
   1427 O293         6.3486     4.1116    23.8148 O         1 MOL       0.0000
   1428 O294         8.1170    16.0070    16.0429 O         1 MOL       0.0000
   1429 O295         7.3025     6.3731    23.3507 O         1 MOL       0.0000
   1430 O296         6.4108    14.2499    15.5255 O         1 MOL       0.0000
   1431 O297         9.5683    11.9226    18.3917 O         1 MOL       0.0000
   1432 O298         2.9334     6.0431    21.0423 O         1 MOL       0.0000
   1433 O299         8.7198     3.2574    25.1169 O         1 MOL       0.0000
   1434 O300         6.9673    17.9306    14.2689 O         1 MOL       0.0000
   1435 O301         9.5219     6.0455    25.1118 O         1 MOL       0.0000
   1436 O302         4.7313    16.0949    14.2088 O         1 MOL       0.0000
   1437 O303         4.7529     4.7136    21.1219 O         1 MOL       0.0000
   1438 O304         7.6053    13.0234    18.2526 O         1 MOL       0.0000
   1439 O305        14.2601    13.1201    14.2550 O         1 MOL       0.0000
   1440 O306         0.1058     9.1597    25.0428 O         1 MOL       0.0000
   1441 O307        13.4645    10.3658    14.2844 O         1 MOL       0.0000
   1442 O308         2.3740    10.9420    25.1241 O         1 MOL       0.0000
   1443 O309         9.3322    13.5771    16.1634 O         1 MOL       0.0000
   1444 O310         4.6303     6.5733    23.1445 O         1 MOL       0.0000
   1445 O311        11.7863    12.3519    13.2306 O         1 MOL       0.0000
   1446 O312         2.5837     8.3880    26.1589 O         1 MOL       0.0000
   1447 H417         8.5634     8.4733    21.6693 H         1 MOL       0.0000
   1448 H418        -1.7632    17.5603    19.3141 H         1 MOL       0.0000
   1449 H419         9.2982    17.1710    18.7626 H         1 MOL       0.0000
   1450 H420         9.5563    10.0117    19.9493 H         1 MOL       0.0000
   1451 H421         4.9025    10.7332    21.5689 H         1 MOL       0.0000
   1452 H422        16.9719     4.3139    20.1791 H         1 MOL       0.0000
   1453 H423         6.2264     8.8277    22.4251 H         1 MOL       0.0000
   1454 H424         5.9224    12.3047    19.8901 H         1 MOL       0.0000
   1455 H425        10.6405    15.4038    17.6488 H         1 MOL       0.0000
   1456 H426        13.0960    15.3015    17.9504 H         1 MOL       0.0000
   1457 C469         7.7851    11.2285    19.8031 C         1 MOL       0.0000
   1458 C470         6.6716     9.5090    21.7018 C         1 MOL       0.0000
   1459 C471        11.1353    16.1361    18.2851 C         1 MOL       0.0000
   1460 C472         2.9251     4.0057    19.8065 C         1 MOL       0.0000
   1461 C473         6.4813    11.4542    20.2759 C         1 MOL       0.0000
   1462 C474         7.9893     9.3082    21.2708 C         1 MOL       0.0000
   1463 C475        10.3775    17.1415    18.8982 C         1 MOL       0.0000
   1464 C476        -2.8391    17.5873    19.1582 C         1 MOL       0.0000
   1465 C477        12.5236    16.0799    18.4517 C         1 MOL       0.0000
   1466 C478        17.5317     3.5032    19.7195 C         1 MOL       0.0000
   1467 C479         8.5451    10.1644    20.3195 C         1 MOL       0.0000
   1468 C480         5.9200    10.5835    21.2107 C         1 MOL       0.0000
   1469 N75         10.0221    17.4535    14.3453 N         1 MOL       0.0000
   1470 N76          6.8767     9.5999    26.0515 N         1 MOL       0.0000
   1471 C481         9.8434    18.0903    13.1561 C         1 MOL       0.0000
   1472 C482         6.1059    10.5197    25.3713 C         1 MOL       0.0000
   1473 C483         9.1702     9.6761    25.0086 C         1 MOL       0.0000
   1474 C484         9.5153    17.9922    15.6187 C         1 MOL       0.0000
   1475 C485        10.9707    16.5150    14.2034 C         1 MOL       0.0000
   1476 C486         7.9760     8.8249    25.4514 C         1 MOL       0.0000
   1477 H427         4.6038    11.9123    26.1787 H         1 MOL       0.0000
   1478 H428         6.3519    10.8565    24.3776 H         1 MOL       0.0000
   1479 H429         8.9106    10.4246    24.2548 H         1 MOL       0.0000
   1480 H430         9.3125    19.0533    15.4934 H         1 MOL       0.0000
   1481 H431         9.6689    10.1794    25.8437 H         1 MOL       0.0000
   1482 H432         8.6464    17.4834    15.9840 H         1 MOL       0.0000
   1483 H433         9.8877     8.9945    24.5314 H         1 MOL       0.0000
   1484 H434         7.5774     8.2839    24.5872 H         1 MOL       0.0000
   1485 H435        10.2469    17.8398    16.4004 H         1 MOL       0.0000
   1486 H436        11.4316    15.9594    15.0149 H         1 MOL       0.0000
   1487 H437         8.2847     8.0980    26.2062 H         1 MOL       0.0000
   1488 N77          6.8299    13.5301    26.0772 N         1 MOL       0.0000
   1489 C487         5.3098     7.5995    14.7467 C         1 MOL       0.0000
   1490 C488        14.1511     1.4818    23.5755 C         1 MOL       0.0000
   1491 O313        18.5830     6.7205    15.7774 O         1 MOL       0.0000
   1492 O314        13.7554    18.6096    14.5598 O         1 MOL       0.0000
   1493 O315         6.2165    12.7469    23.4717 O         1 MOL       0.0000
   1494 O316         8.8248    13.4379    21.9876 O         1 MOL       0.0000
   1495 F85          5.2028     8.9401    15.4279 F         1 MOL       0.0000
   1496 F86         14.1690     3.7541    25.0421 F         1 MOL       0.0000
   1497 F87          6.7754     8.3659    13.9715 F         1 MOL       0.0000
   1498 F88          4.5648     6.7666    17.1294 F         1 MOL       0.0000
   1499 F89         13.6244     2.5821    23.1716 F         1 MOL       0.0000
   1500 F90          7.0564    15.1527    21.5876 F         1 MOL       0.0000
   1501 S29         12.5649    20.2824    14.4376 S         1 MOL       0.0000
   1502 S30          7.4203    13.4907    23.9365 S         1 MOL       0.0000
   1503 N78          8.1032     8.5641    16.5425 N         1 MOL       0.0000
   1504 N79          6.3581     9.3488    17.6243 N         1 MOL       0.0000
   1505 C489         9.1049     8.2184    15.4645 C         1 MOL       0.0000
   1506 C490         7.1597     9.5213    16.5380 C         1 MOL       0.0000
   1507 C491         7.8832     7.7310    17.6589 C         1 MOL       0.0000
   1508 C492         8.9921     6.8249    14.8051 C         1 MOL       0.0000
   1509 C493         6.8496     8.3232    18.3586 C         1 MOL       0.0000
   1510 C494         5.0109     9.9411    17.8511 C         1 MOL       0.0000
   1511 H438        10.0909     8.3471    15.9203 H         1 MOL       0.0000
   1512 H439         8.9733     8.9682    14.6835 H         1 MOL       0.0000
   1513 H440         7.0042    10.2536    15.7453 H         1 MOL       0.0000
   1514 H441         9.9313     6.6440    14.2631 H         1 MOL       0.0000
   1515 H442         8.5358     6.9217    17.9028 H         1 MOL       0.0000
   1516 H443         4.9520    10.3729    18.8540 H         1 MOL       0.0000
   1517 H444         4.7520    10.6672    17.0746 H         1 MOL       0.0000
   1518 H445         8.8424     5.9873    15.4977 H         1 MOL       0.0000
   1519 H446         6.3349     7.9723    19.2499 H         1 MOL       0.0000
   1520 H447         8.1865     6.8187    14.0645 H         1 MOL       0.0000
   1521 H448         4.3028     9.1018    17.7582 H         1 MOL       0.0000
   1522 N80          4.3783     7.5550    13.8189 N         1 MOL       0.0000
   1523 C495         3.2739     6.3052    17.0429 C         1 MOL       0.0000
   1524 C496        13.9923     0.5971    24.9605 C         1 MOL       0.0000
   1525 O317         0.9201     3.2416    26.1974 O         1 MOL       0.0000
   1526 O318        -0.0255    19.6459    15.6773 O         1 MOL       0.0000
   1527 O319         1.1556     1.0687    24.8395 O         1 MOL       0.0000
   1528 O320        -0.2380    20.1651    13.1701 O         1 MOL       0.0000
   1529 F91          2.5646     6.3843    18.0698 F         1 MOL       0.0000
   1530 F92         12.7119     1.0743    25.6639 F         1 MOL       0.0000
   1531 F93         11.3649    19.2386    15.0971 F         1 MOL       0.0000
   1532 F94          3.6037     5.0400    16.8971 F         1 MOL       0.0000
   1533 F95         15.5103     1.5376    23.3798 F         1 MOL       0.0000
   1534 F96          8.4951    12.5054    24.4603 F         1 MOL       0.0000
   1535 S31          0.4269     1.9625    25.7016 S         1 MOL       0.0000
   1536 S32         -0.7297    20.1970    14.5567 S         1 MOL       0.0000
@<TRIPOS>BOND
     1     1    78 1
     2     1    96 1
     3     7    88 1
     4     7   100 1
     5     1     7 1
     6     1    80 1
     7     1    82 1
     8     7    72 1
     9     7    80 1
    10     7    82 1
    11     1   102 1
    12     1   197 1
    13     1    98 1
    14     2     8 1
    15     2    79 1
    16     2    81 1
    17     2   101 1
    18     2    97 1
    19     2    77 1
    20     2    95 1
    21     3    93 1
    22     3   100 1
    23     3    76 1
    24     3    83 1
    25     3    85 1
    26     3     6 1
    27     4    86 1
    28     4    94 1
    29     4     5 1
    30     4    84 1
    31     4    75 1
    32     4    99 1
    33     5    92 1
    34     5    86 1
    35     5    74 1
    36     5    84 1
    37     5    90 1
    38     6    83 1
    39     6    85 1
    40     6   194 1
    41     6   293 1
    42   194   293 1
    43   208   293 1
    44   194   200 1
    45   194   271 1
    46   194   273 1
    47     6    73 1
    48     6    89 1
    49     6    91 1
    50   194   287 1
    51   194   289 1
    52   194   269 1
    53     8    79 1
    54     8    81 1
    55     8    99 1
    56    16   101 1
    57    25    99 1
    58     8    71 1
    59     8    87 1
    60     9    60 1
    61    59    66 1
    62    10    59 1
    63    49    59 1
    64    34    38 1
    65    34    78 1
    66    11    62 1
    67    34    72 1
    68    12   829 1
    69   829   832 1
    70    31    70 1
    71    32    70 1
    72    43    70 1
    73    13    65 1
    74    14    64 1
    75   197   284 1
    76   197   266 1
    77    15   102 1
    78   102   197 1
    79   197   276 1
    80   197   278 1
    81   197   282 1
    82    17    46 1
    83    36    40 1
    84    45   427 1
    85    36    74 1
    86    18    45 1
    87    36    75 1
    88    19    48 1
    89    20    47 1
    90    47   810 1
    91    21    42 1
    92    22    44 1
    93    40    44 1
    94    44   430 1
    95    40    45 1
    96    56    90 1
    97    23   451 1
    98    50    56 1
    99    50   450 1
   100   408   451 1
   101   450   451 1
   102    24    67 1
   103    66    67 1
   104    26   100 1
   105   118   123 1
   106   103   118 1
   107   107   124 1
   108   109   114 1
   109   114   118 1
   110   114   124 1
   111    35    76 1
   112    39    43 1
   113    39    46 1
   114    35    39 1
   115    35    73 1
   116    27    68 1
   117    28    68 1
   118    29    69 1
   119    30    69 1
   120    33    71 1
   121    37    47 1
   122    41   816 1
   123    33    77 1
   124    33    37 1
   125    37    41 1
   126    41    69 1
   127    38    42 1
   128    38    48 1
   129    51    57 1
   130    57    91 1
   131    57   287 1
   132    51    63 1
   133    51  1021 1
   134    52    58 1
   135    52    62 1
   136    52   256 1
   137    58    96 1
   138    58   284 1
   139   113   123 1
   140   117   124 1
   141    53    94 1
   142    53   113 1
   143   110   117 1
   144   113   117 1
   145    53    87 1
   146    54   116 1
   147    54    88 1
   148    54    93 1
   149   251   258 1
   150    55   241 1
   151    65   241 1
   152   241   251 1
   153    55    89 1
   154    55   289 1
   155    60   242 1
   156    98   248 1
   157   242   248 1
   158   242   642 1
   159   248   282 1
   160   642   643 1
   161    60   449 1
   162   133   319 1
   163    61    64 1
   164   129   132 1
   165    63    68 1
   166   129   135 1
   167   129   137 1
   168   129   139 1
   169    63   830 1
   170  1021  1024 1
   171   104   120 1
   172   105   119 1
   173   111   115 1
   174   115   119 1
   175   119   506 1
   176   115   121 1
   177   506  1268 1
   178   106   123 1
   179   108   122 1
   180   122   884 1
   181   947   953 1
   182   947   956 1
   183   112   121 1
   184   121   888 1
   185   872   888 1
   186   888  1268 1
   187   154   179 1
   188   179   185 1
   189   179   188 1
   190   120   500 1
   191   166   173 1
   192   166   177 1
   193   163   171 1
   194   160   162 1
   195   160   165 1
   196   160   166 1
   197   163   165 1
   198   165   175 1
   199   166   172 1
   200   125   127 1
   201   125   130 1
   202   125   131 1
   203   130   138 1
   204   130   141 1
   205   131   142 1
   206   130   136 1
   207   126   128 1
   208   126   132 1
   209   126   323 1
   210   132   140 1
   211   132   143 1
   212   317   323 1
   213   323   334 1
   214   128   134 1
   215   128   319 1
   216   317   319 1
   217   317   322 1
   218   149   158 1
   219   158   190 1
   220   158   564 1
   221   531  1331 1
   222   144   349 1
   223   349   379 1
   224   349   723 1
   225   349  1522 1
   226   145   178 1
   227   145   151 1
   228   159   162 1
   229   162   169 1
   230   159   163 1
   231   159   161 1
   232   146   155 1
   233   146   189 1
   234   146   180 1
   235   147   947 1
   236   157   187 1
   237   157   531 1
   238   148   157 1
   239   148   960 1
   240   157  1330 1
   241   950   960 1
   242   952   960 1
   243   960  1297 1
   244  1297  1330 1
   245  1297  1303 1
   246   415   454 1
   247   530   539 1
   248   530   564 1
   249   530   573 1
   250   161   164 1
   251   161   167 1
   252   161   168 1
   253   164   176 1
   254   164   170 1
   255   164   174 1
   256   180   186 1
   257   181   191 1
   258   182   192 1
   259   184   192 1
   260   192   529 1
   261   183   191 1
   262   356   366 1
   263   356   368 1
   264   356   362 1
   265   191   370 1
   266   337   370 1
   267   337   343 1
   268   193   270 1
   269   193   274 1
   270   193   288 1
   271   193   199 1
   272   193   272 1
   273   193   294 1
   274   207   294 1
   275   218   292 1
   276   193   290 1
   277   195   285 1
   278   195   292 1
   279   195   268 1
   280   195   198 1
   281   195   275 1
   282   195   277 1
   283   198   265 1
   284   198   275 1
   285   198   277 1
   286   198   281 1
   287   198   283 1
   288   196   286 1
   289   196   291 1
   290   196   197 1
   291   196   267 1
   292   196   276 1
   293   196   278 1
   294   297   311 1
   295   199   264 1
   296   199   274 1
   297   199   280 1
   298   199   272 1
   299   199   292 1
   300   200   291 1
   301   200   263 1
   302   200   271 1
   303   200   273 1
   304   200   279 1
   305   201   252 1
   306   252   641 1
   307   202   251 1
   308   212   239 1
   309   239  1002 1
   310   203   254 1
   311   244   254 1
   312   244   250 1
   313   204  1021 1
   314   205   257 1
   315   247   281 1
   316   206   256 1
   317   228   232 1
   318   228   266 1
   319   232   237 1
   320   232   236 1
   321   228   267 1
   322   209   238 1
   323   227   268 1
   324   227   265 1
   325   227   231 1
   326   210   237 1
   327   211   240 1
   328   213   234 1
   329   226   230 1
   330   226   264 1
   331   230   234 1
   332   226   270 1
   333   230   240 1
   334   214   236 1
   335   236   622 1
   336   215   643 1
   337   600   643 1
   338   216   259 1
   339   217   291 1
   340   303   307 1
   341   304   313 1
   342   307   313 1
   343   307   311 1
   344   313  1080 1
   345   243   249 1
   346   219   260 1
   347   243   255 1
   348   255   260 1
   349   255  1022 1
   350   224   262 1
   351   249   283 1
   352   220   260 1
   353   221   261 1
   354   222   261 1
   355   223   262 1
   356   225   263 1
   357   225   269 1
   358   225   229 1
   359   233   261 1
   360   229   239 1
   361   233  1008 1
   362   979  1008 1
   363   229   233 1
   364   231   238 1
   365   235   262 1
   366   231   235 1
   367   237   619 1
   368   619   646 1
   369   245   286 1
   370   245   305 1
   371   245   279 1
   372   246   280 1
   373   246   285 1
   374   246   308 1
   375   250   288 1
   376   253   256 1
   377   258   259 1
   378   295   310 1
   379   301   306 1
   380   306   310 1
   381   310   315 1
   382   306   316 1
   383   296   312 1
   384   298   315 1
   385   299   316 1
   386   300   314 1
   387   305   315 1
   388   302   309 1
   389   305   309 1
   390   309   316 1
   391   311   698 1
   392  1080  1460 1
   393   312   692 1
   394   314  1076 1
   395  1014  1048 1
   396  1014  1076 1
   397  1014  1053 1
   398   318   324 1
   399   321   324 1
   400   324   332 1
   401   324   335 1
   402   318   320 1
   403   321   327 1
   404   321   329 1
   405   321   331 1
   406   320   326 1
   407   341   350 1
   408   350   382 1
   409   350   756 1
   410   322   330 1
   411   322   328 1
   412   322   333 1
   413   723  1523 1
   414  1523  1529 1
   415  1523  1532 1
   416   372   378 1
   417   338   347 1
   418   338   372 1
   419   338   381 1
   420   339  1139 1
   421   340   349 1
   422   340  1152 1
   423  1144  1152 1
   424  1152  1489 1
   425   346   371 1
   426   358   369 1
   427   358   365 1
   428   358   364 1
   429   352   358 1
   430   353   356 1
   431   353   360 1
   432   351   353 1
   433   351   354 1
   434   351   355 1
   435   352   354 1
   436   352   357 1
   437   354   361 1
   438   355   357 1
   439   355   363 1
   440   357   367 1
   441   353   359 1
   442   371   377 1
   443   371   380 1
   444   373   383 1
   445   374   384 1
   446   375   383 1
   447   376   384 1
   448   384   721 1
   449   418   422 1
   450   385   480 1
   451   385   466 1
   452   391   466 1
   453   391   472 1
   454   385   391 1
   455   385   462 1
   456   385   464 1
   457   391   456 1
   458   391   464 1
   459   418   456 1
   460   418   462 1
   461   385   482 1
   462   385   486 1
   463   385   581 1
   464   391   484 1
   465   386   392 1
   466   386   463 1
   467   386   481 1
   468   386   461 1
   469   386   465 1
   470   386   479 1
   471   386   485 1
   472   387   460 1
   473   387   467 1
   474   387   469 1
   475   387   477 1
   476   387   484 1
   477   410   484 1
   478   387   390 1
   479   388   470 1
   480   388   478 1
   481   388   389 1
   482   388   459 1
   483   388   483 1
   484   388   468 1
   485   389   470 1
   486   389   458 1
   487   389   474 1
   488   389   476 1
   489   389   468 1
   490   390   467 1
   491   390   469 1
   492   390   677 1
   493   578   677 1
   494   578   584 1
   495   578   655 1
   496   578   657 1
   497   390   473 1
   498   578   673 1
   499   390   457 1
   500   390   475 1
   501   390   578 1
   502   441   475 1
   503   441   671 1
   504   578   671 1
   505   578   653 1
   506   392   463 1
   507   392   483 1
   508   409   483 1
   509   392   471 1
   510   392   465 1
   511   400   485 1
   512   392   455 1
   513   393   444 1
   514   443   450 1
   515   394   443 1
   516   433   443 1
   517   403   432 1
   518   395   446 1
   519   396  1213 1
   520  1213  1216 1
   521   416   454 1
   522   427   454 1
   523   397   449 1
   524   398   448 1
   525   581   668 1
   526   581   662 1
   527   399   486 1
   528   486   581 1
   529   581   666 1
   530   581   650 1
   531   581   660 1
   532   482   632 1
   533   423   427 1
   534   401   430 1
   535   423   430 1
   536   424   428 1
   537   420   458 1
   538   402   429 1
   539   420   424 1
   540   420   459 1
   541   424   429 1
   542  1190  1200 1
   543   404   431 1
   544   431  1194 1
   545  1173  1194 1
   546  1190  1194 1
   547   405   426 1
   548   406   428 1
   549   434   440 1
   550   411   452 1
   551   419   460 1
   552   419   423 1
   553   419   457 1
   554   412   452 1
   555   413   453 1
   556   417   421 1
   557   417   461 1
   558   417   455 1
   559   414   453 1
   560   421   425 1
   561   425  1200 1
   562   425   453 1
   563   421   431 1
   564   422   432 1
   565   422   426 1
   566   435   441 1
   567   447   452 1
   568   435   447 1
   569   435  1405 1
   570   447  1214 1
   571  1405  1408 1
   572   436   442 1
   573   436   446 1
   574   436   640 1
   575   442   480 1
   576   442   668 1
   577   437   478 1
   578   497   501 1
   579   497   507 1
   580   437   471 1
   581   437   497 1
   582   563   572 1
   583   438   500 1
   584   563   569 1
   585   438   472 1
   586   438   477 1
   587   635   642 1
   588   439   473 1
   589   439   625 1
   590   439   673 1
   591   449   625 1
   592   625   635 1
   593   440   474 1
   594   632   666 1
   595   444   626 1
   596   626   632 1
   597   445   448 1
   598   509   511 1
   599   509   514 1
   600   509   515 1
   601   514   522 1
   602   514   525 1
   603   514   520 1
   604   515   526 1
   605   501   508 1
   606   494   501 1
   607   502   507 1
   608   487   502 1
   609   488   504 1
   610   489   503 1
   611   495   499 1
   612   499   503 1
   613   499   505 1
   614   547   549 1
   615   547   555 1
   616   490   507 1
   617   491   508 1
   618   493   498 1
   619   498   508 1
   620   498   502 1
   621   492   506 1
   622   496   505 1
   623   505  1272 1
   624  1256  1272 1
   625   512   518 1
   626   510   512 1
   627   510   707 1
   628   512   703 1
   629   701   703 1
   630   701   707 1
   631   707   718 1
   632   701   706 1
   633   510   516 1
   634   516   524 1
   635   513   519 1
   636   513   516 1
   637   513   521 1
   638   513   523 1
   639   516   527 1
   640   517   703 1
   641   528   733 1
   642   532   541 1
   643   532  1344 1
   644   529   535 1
   645   529   562 1
   646   546   553 1
   647   533   542 1
   648   542   574 1
   649   538   563 1
   650   541   571 1
   651   543   546 1
   652   545   548 1
   653   543   545 1
   654   545   551 1
   655   545   552 1
   656   543   547 1
   657   544   546 1
   658   544   549 1
   659   544   550 1
   660   549   559 1
   661   550   556 1
   662   550   557 1
   663   550   561 1
   664   548   554 1
   665   548   558 1
   666   548   560 1
   667   564   570 1
   668   575   754 1
   669   721   754 1
   670   565   575 1
   671   567   575 1
   672   721   727 1
   673   566   576 1
   674   568   576 1
   675   733   763 1
   676   724   733 1
   677   724  1536 1
   678  1528  1536 1
   679   577   654 1
   680   577   672 1
   681   577   583 1
   682   577   656 1
   683   577   658 1
   684   577   678 1
   685   591   678 1
   686   577   674 1
   687   579   676 1
   688   579   652 1
   689   579   669 1
   690   579   582 1
   691   579   659 1
   692   579   661 1
   693   593   622 1
   694   616   620 1
   695   580   662 1
   696   580   670 1
   697   580   581 1
   698   580   651 1
   699   580   660 1
   700   612   616 1
   701   612   650 1
   702   612   651 1
   703   616   621 1
   704   580   675 1
   705   582   659 1
   706   582   661 1
   707   582   649 1
   708   582   665 1
   709   582   667 1
   710   610   614 1
   711   610   654 1
   712   583   664 1
   713   583   676 1
   714   583   648 1
   715   610   648 1
   716   583   656 1
   717   583   658 1
   718   584   647 1
   719   584   655 1
   720   584   657 1
   721   584   663 1
   722   584   675 1
   723   601   675 1
   724   585   636 1
   725   586   635 1
   726   596   623 1
   727   623  1386 1
   728   587   638 1
   729   628   634 1
   730   628   638 1
   731   634   672 1
   732   588  1405 1
   733   607   646 1
   734   608   646 1
   735   589   641 1
   736   631   665 1
   737   590   640 1
   738   598   620 1
   739   592   677 1
   740   594   621 1
   741   595   624 1
   742   597   618 1
   743   602   676 1
   744   702   704 1
   745   702   708 1
   746   708   716 1
   747   708   719 1
   748   704   710 1
   749   705   708 1
   750   627   633 1
   751   603   644 1
   752   627   639 1
   753   639   644 1
   754   705   711 1
   755   705   713 1
   756   705   715 1
   757   639  1406 1
   758   633   667 1
   759   604   644 1
   760   613   623 1
   761   617  1392 1
   762   605   645 1
   763   613   617 1
   764   617   645 1
   765   606   645 1
   766   609   647 1
   767   609   653 1
   768   609   613 1
   769   611   652 1
   770   615   619 1
   771   611   615 1
   772   615   622 1
   773   611   649 1
   774   614   618 1
   775   614   624 1
   776   629   670 1
   777   629   689 1
   778   629   663 1
   779   630   664 1
   780   630   692 1
   781   630   669 1
   782   637   640 1
   783   679   694 1
   784   682   699 1
   785   680   696 1
   786   687   691 1
   787   706   714 1
   788   706   717 1
   789   681   695 1
   790   691   695 1
   791   706   712 1
   792   691   697 1
   793   683   700 1
   794   693   700 1
   795   686   693 1
   796   689   693 1
   797   689   699 1
   798   684   698 1
   799   698  1460 1
   800  1351  1432 1
   801  1398  1432 1
   802  1398  1460 1
   803  1351  1426 1
   804  1351  1416 1
   805  1351  1424 1
   806  1398  1437 1
   807  1351  1444 1
   808   685   690 1
   809   690   694 1
   810   690   700 1
   811   694   699 1
   812   688   697 1
   813   697  1464 1
   814   725   734 1
   815   734   766 1
   816   722   731 1
   817   722   756 1
   818   722   765 1
   819   756   762 1
   820   742   753 1
   821   735   738 1
   822   735   739 1
   823   736   738 1
   824   736   741 1
   825   736   742 1
   826   738   745 1
   827   739   741 1
   828   742   749 1
   829   741   751 1
   830   742   748 1
   831   739   747 1
   832   735   737 1
   833   730   755 1
   834   755   761 1
   835   755   764 1
   836   737   740 1
   837   737   744 1
   838   737   743 1
   839   740   752 1
   840   740   746 1
   841   740   750 1
   842   757   767 1
   843   758   768 1
   844   759   767 1
   845   760   768 1
   846   965  1052 1
   847   769   775 1
   848   769   850 1
   849   965  1046 1
   850   769   846 1
   851   769   848 1
   852   769   864 1
   853   769   866 1
   854   769   870 1
   855   769   965 1
   856   870   965 1
   857   965  1050 1
   858   965  1034 1
   859   965  1044 1
   860   866  1016 1
   861   770   847 1
   862   770   776 1
   863   770   865 1
   864   770   845 1
   865   770   849 1
   866   770   863 1
   867   770   869 1
   868   771   844 1
   869   771   851 1
   870   771   853 1
   871   771   861 1
   872   771   868 1
   873   794   868 1
   874   771   774 1
   875   772   854 1
   876   772   773 1
   877   772   843 1
   878   772   867 1
   879   793   867 1
   880   772   862 1
   881   772   852 1
   882   784   869 1
   883   773   854 1
   884   773   842 1
   885   773   858 1
   886   773   860 1
   887   824   858 1
   888   773   852 1
   889   774   851 1
   890   774   853 1
   891   774  1061 1
   892   774   857 1
   893   774   841 1
   894   774   859 1
   895   825   859 1
   896   825  1055 1
   897   774   962 1
   898   822   884 1
   899   775   850 1
   900   775   856 1
   901   822   856 1
   902   775   840 1
   903   775   848 1
   904   775   868 1
   905   822   861 1
   906   776   847 1
   907   821   881 1
   908   776   867 1
   909   776   855 1
   910   821   855 1
   911   821   862 1
   912   776   849 1
   913   776   839 1
   914   777   828 1
   915   827   834 1
   916   778   827 1
   917   817   827 1
   918   787   816 1
   919   779   830 1
   920   807   814 1
   921   800   838 1
   922   807   811 1
   923   811   838 1
   924   781   833 1
   925   782   832 1
   926   783   870 1
   927   785   814 1
   928   808   812 1
   929   804   842 1
   930   786   813 1
   931   804   808 1
   932   804   843 1
   933   808   813 1
   934   813  1195 1
   935   788   815 1
   936   789   810 1
   937   790   812 1
   938   812  1198 1
   939   818   824 1
   940   791  1219 1
   941   818  1218 1
   942  1176  1219 1
   943  1211  1218 1
   944  1218  1219 1
   945   792   835 1
   946   834   835 1
   947   795   836 1
   948   803   844 1
   949   803   807 1
   950   803   841 1
   951   796   836 1
   952   797   837 1
   953   801   805 1
   954   801   845 1
   955   801   839 1
   956   798   837 1
   957   799   838 1
   958   914   923 1
   959   914   948 1
   960   914   957 1
   961   806   816 1
   962   806   810 1
   963   802   806 1
   964   802   840 1
   965   802   846 1
   966   805   809 1
   967   809   837 1
   968   805   815 1
   969   819   825 1
   970   831   836 1
   971   819   831 1
   972   820   826 1
   973   820   830 1
   974   820  1024 1
   975   826  1052 1
   976   826   864 1
   977  1019  1026 1
   978   823   857 1
   979   823  1009 1
   980   823  1057 1
   981   833  1009 1
   982  1009  1019 1
   983  1016  1050 1
   984   828  1010 1
   985  1010  1016 1
   986  1010  1410 1
   987  1410  1411 1
   988   828  1217 1
   989   927   930 1
   990   929   932 1
   991   927   929 1
   992   929   935 1
   993   929   936 1
   994   927   931 1
   995   893   895 1
   996   893   898 1
   997   893   899 1
   998   898   906 1
   999   898   909 1
  1000   898   904 1
  1001   899   910 1
  1002   886   891 1
  1003   871   886 1
  1004   873   887 1
  1005   879   883 1
  1006   883   887 1
  1007   887  1274 1
  1008   883   889 1
  1009   931   933 1
  1010   881   885 1
  1011   931   939 1
  1012   874   891 1
  1013   881   891 1
  1014   875   892 1
  1015   877   882 1
  1016   882   892 1
  1017   882   886 1
  1018   876   890 1
  1019   885   892 1
  1020   878   885 1
  1021   880   889 1
  1022   894   896 1
  1023   894  1091 1
  1024   896   902 1
  1025   896  1087 1
  1026  1085  1087 1
  1027  1085  1091 1
  1028  1085  1090 1
  1029  1091  1102 1
  1030   894   900 1
  1031   900   908 1
  1032   897   903 1
  1033   897   900 1
  1034   897   905 1
  1035   897   907 1
  1036   900   911 1
  1037   901  1087 1
  1038   912  1117 1
  1039   916   925 1
  1040   913   919 1
  1041   913   946 1
  1042   930   937 1
  1043   917   926 1
  1044   926  1332 1
  1045   926   958 1
  1046   948   954 1
  1047   922   947 1
  1048  1183  1222 1
  1049  1184  1222 1
  1050  1195  1222 1
  1051   925   955 1
  1052   925  1299 1
  1053   928   930 1
  1054   928   933 1
  1055   928   934 1
  1056   933   943 1
  1057   934   940 1
  1058   934   941 1
  1059   934   945 1
  1060   932   938 1
  1061   932   942 1
  1062   932   944 1
  1063   959  1138 1
  1064  1105  1138 1
  1065   949   959 1
  1066   951   959 1
  1067  1105  1111 1
  1068  1117  1147 1
  1069  1117  1491 1
  1070  1108  1117 1
  1071   961  1056 1
  1072   967  1048 1
  1073   967  1060 1
  1074   967  1032 1
  1075   961   967 1
  1076   961  1038 1
  1077   961  1040 1
  1078   961  1042 1
  1079   961  1062 1
  1080   967  1040 1
  1081   967  1042 1
  1082   975  1062 1
  1083   961  1058 1
  1084   962  1061 1
  1085   962   968 1
  1086   962  1039 1
  1087   962  1041 1
  1088   993  1031 1
  1089   962  1057 1
  1090   993   997 1
  1091   962  1055 1
  1092   962  1037 1
  1093   993  1037 1
  1094   963  1060 1
  1095   963  1036 1
  1096   963  1053 1
  1097   963   966 1
  1098   963  1043 1
  1099   963  1045 1
  1100   966  1043 1
  1101   966  1045 1
  1102   966  1049 1
  1103   966  1033 1
  1104   966  1051 1
  1105   964  1046 1
  1106   964  1054 1
  1107   964   965 1
  1108   964  1035 1
  1109   964  1044 1
  1110   964  1059 1
  1111   968  1031 1
  1112   968  1039 1
  1113   968  1041 1
  1114   968  1047 1
  1115   968  1059 1
  1116   985  1059 1
  1117   969  1020 1
  1118  1020  1409 1
  1119   970  1019 1
  1120   980  1007 1
  1121   971  1022 1
  1122  1012  1018 1
  1123  1012  1022 1
  1124  1018  1056 1
  1125   973  1025 1
  1126   991  1030 1
  1127   992  1030 1
  1128   974  1024 1
  1129   982  1004 1
  1130  1004  1390 1
  1131   976  1061 1
  1132   995  1036 1
  1133   999  1003 1
  1134   977  1006 1
  1135   995   999 1
  1136   999  1006 1
  1137   995  1033 1
  1138  1000  1004 1
  1139  1005  1387 1
  1140   978  1005 1
  1141  1000  1005 1
  1142   981  1002 1
  1143   994   998 1
  1144   994  1032 1
  1145   994  1038 1
  1146   983  1411 1
  1147  1368  1411 1
  1148   984  1027 1
  1149   986  1060 1
  1150  1086  1088 1
  1151  1086  1092 1
  1152  1088  1094 1
  1153  1092  1100 1
  1154  1092  1103 1
  1155   987  1028 1
  1156   988  1028 1
  1157  1011  1017 1
  1158  1011  1023 1
  1159   989  1029 1
  1160   990  1029 1
  1161   996  1034 1
  1162   996  1035 1
  1163   996  1000 1
  1164   997  1007 1
  1165   997  1001 1
  1166  1001  1029 1
  1167   998  1002 1
  1168   998  1008 1
  1169  1003  1030 1
  1170  1077  1084 1
  1171  1013  1054 1
  1172  1013  1073 1
  1173  1070  1077 1
  1174  1073  1077 1
  1175  1073  1083 1
  1176  1013  1047 1
  1177  1015  1049 1
  1178  1017  1051 1
  1179  1089  1092 1
  1180  1023  1028 1
  1181  1089  1095 1
  1182  1089  1097 1
  1183  1089  1099 1
  1184  1026  1027 1
  1185  1063  1078 1
  1186  1066  1083 1
  1187  1064  1080 1
  1188  1065  1079 1
  1189  1079  1466 1
  1190  1067  1084 1
  1191  1069  1074 1
  1192  1074  1078 1
  1193  1074  1084 1
  1194  1078  1083 1
  1195  1068  1082 1
  1196  1071  1075 1
  1197  1090  1098 1
  1198  1090  1101 1
  1199  1075  1079 1
  1200  1090  1096 1
  1201  1075  1081 1
  1202  1072  1081 1
  1203  1109  1118 1
  1204  1118  1524 1
  1205  1118  1150 1
  1206  1106  1115 1
  1207  1106  1140 1
  1208  1106  1149 1
  1209  1140  1146 1
  1210  1126  1137 1
  1211  1119  1122 1
  1212  1119  1123 1
  1213  1120  1122 1
  1214  1120  1125 1
  1215  1120  1126 1
  1216  1122  1129 1
  1217  1123  1125 1
  1218  1126  1133 1
  1219  1125  1135 1
  1220  1126  1132 1
  1221  1123  1131 1
  1222  1119  1121 1
  1223  1114  1139 1
  1224  1139  1145 1
  1225  1139  1148 1
  1226  1121  1124 1
  1227  1121  1128 1
  1228  1121  1127 1
  1229  1124  1136 1
  1230  1124  1130 1
  1231  1124  1134 1
  1232  1141  1151 1
  1233  1498  1523 1
  1234  1142  1152 1
  1235  1143  1151 1
  1236  1153  1234 1
  1237  1349  1430 1
  1238  1153  1230 1
  1239  1153  1248 1
  1240  1153  1250 1
  1241  1153  1254 1
  1242  1153  1349 1
  1243  1210  1248 1
  1244  1210  1436 1
  1245  1250  1400 1
  1246  1254  1349 1
  1247  1349  1434 1
  1248  1349  1436 1
  1249  1400  1434 1
  1250  1349  1418 1
  1251  1153  1159 1
  1252  1153  1232 1
  1253  1349  1428 1
  1254  1154  1229 1
  1255  1154  1231 1
  1256  1154  1249 1
  1257  1154  1233 1
  1258  1154  1253 1
  1259  1168  1253 1
  1260  1154  1160 1
  1261  1154  1247 1
  1262  1159  1234 1
  1263  1159  1224 1
  1264  1206  1268 1
  1265  1155  1235 1
  1266  1155  1245 1
  1267  1155  1252 1
  1268  1159  1240 1
  1269  1159  1252 1
  1270  1178  1252 1
  1271  1206  1240 1
  1272  1206  1245 1
  1273  1159  1232 1
  1274  1155  1228 1
  1275  1155  1237 1
  1276  1155  1158 1
  1277  1156  1238 1
  1278  1156  1157 1
  1279  1156  1227 1
  1280  1156  1251 1
  1281  1177  1251 1
  1282  1156  1246 1
  1283  1156  1236 1
  1284  1157  1238 1
  1285  1157  1226 1
  1286  1157  1244 1
  1287  1157  1236 1
  1288  1157  1242 1
  1289  1158  1235 1
  1290  1158  1241 1
  1291  1158  1225 1
  1292  1158  1237 1
  1293  1158  1243 1
  1294  1158  1445 1
  1295  1209  1243 1
  1296  1209  1439 1
  1297  1158  1346 1
  1298  1160  1251 1
  1299  1160  1239 1
  1300  1160  1231 1
  1301  1182  1221 1
  1302  1160  1233 1
  1303  1160  1223 1
  1304  1263  1267 1
  1305  1264  1273 1
  1306  1161  1212 1
  1307  1162  1211 1
  1308  1201  1211 1
  1309  1171  1200 1
  1310  1163  1214 1
  1311  1191  1198 1
  1312  1165  1217 1
  1313  1191  1195 1
  1314  1166  1216 1
  1315  1167  1254 1
  1316  1169  1198 1
  1317  1315  1323 1
  1318  1315  1317 1
  1319  1188  1226 1
  1320  1170  1197 1
  1321  1174  1196 1
  1322  1188  1192 1
  1323  1188  1227 1
  1324  1192  1196 1
  1325  1192  1197 1
  1326  1189  1193 1
  1327  1172  1199 1
  1328  1189  1199 1
  1329  1202  1208 1
  1330  1179  1220 1
  1331  1180  1220 1
  1332  1181  1221 1
  1333  1185  1229 1
  1334  1193  1221 1
  1335  1185  1223 1
  1336  1185  1189 1
  1337  1186  1190 1
  1338  1186  1224 1
  1339  1186  1230 1
  1340  1187  1191 1
  1341  1187  1225 1
  1342  1187  1228 1
  1343  1203  1209 1
  1344  1215  1220 1
  1345  1203  1215 1
  1346  1204  1214 1
  1347  1204  1408 1
  1348  1204  1210 1
  1349  1205  1265 1
  1350  1205  1239 1
  1351  1205  1246 1
  1352  1403  1410 1
  1353  1207  1241 1
  1354  1207  1393 1
  1355  1207  1441 1
  1356  1217  1393 1
  1357  1393  1403 1
  1358  1208  1242 1
  1359  1277  1279 1
  1360  1277  1282 1
  1361  1282  1288 1
  1362  1282  1290 1
  1363  1282  1293 1
  1364  1277  1283 1
  1365  1394  1400 1
  1366  1212  1394 1
  1367  1259  1276 1
  1368  1261  1266 1
  1369  1266  1276 1
  1370  1270  1275 1
  1371  1255  1270 1
  1372  1266  1270 1
  1373  1257  1271 1
  1374  1265  1269 1
  1375  1317  1327 1
  1376  1258  1275 1
  1377  1265  1275 1
  1378  1260  1274 1
  1379  1262  1269 1
  1380  1267  1271 1
  1381  1267  1273 1
  1382  1312  1318 1
  1383  1318  1324 1
  1384  1318  1325 1
  1385  1318  1329 1
  1386  1269  1276 1
  1387  1312  1314 1
  1388  1312  1317 1
  1389  1278  1280 1
  1390  1278  1475 1
  1391  1281  1287 1
  1392  1278  1284 1
  1393  1281  1284 1
  1394  1281  1289 1
  1395  1281  1291 1
  1396  1284  1292 1
  1397  1284  1295 1
  1398  1492  1501 1
  1399  1280  1286 1
  1400  1280  1471 1
  1401  1469  1471 1
  1402  1469  1475 1
  1403  1469  1474 1
  1404  1475  1486 1
  1405  1283  1294 1
  1406  1300  1309 1
  1407  1285  1471 1
  1408  1296  1501 1
  1409  1501  1531 1
  1410  1298  1307 1
  1411  1298  1332 1
  1412  1298  1341 1
  1413  1301  1310 1
  1414  1310  1342 1
  1415  1313  1316 1
  1416  1311  1315 1
  1417  1311  1313 1
  1418  1311  1314 1
  1419  1313  1319 1
  1420  1313  1320 1
  1421  1314  1321 1
  1422  1331  1337 1
  1423  1306  1331 1
  1424  1331  1340 1
  1425  1309  1339 1
  1426  1316  1322 1
  1427  1316  1326 1
  1428  1316  1328 1
  1429  1332  1338 1
  1430  1333  1343 1
  1431  1335  1343 1
  1432  1343  1522 1
  1433  1489  1522 1
  1434  1489  1495 1
  1435  1334  1344 1
  1436  1336  1344 1
  1437  1345  1351 1
  1438  1345  1426 1
  1439  1345  1422 1
  1440  1345  1424 1
  1441  1345  1440 1
  1442  1345  1442 1
  1443  1345  1446 1
  1444  1346  1423 1
  1445  1346  1352 1
  1446  1346  1441 1
  1447  1377  1381 1
  1448  1346  1439 1
  1449  1346  1445 1
  1450  1346  1421 1
  1451  1346  1425 1
  1452  1377  1415 1
  1453  1377  1421 1
  1454  1347  1420 1
  1455  1347  1437 1
  1456  1347  1427 1
  1457  1347  1429 1
  1458  1347  1444 1
  1459  1370  1444 1
  1460  1347  1350 1
  1461  1348  1430 1
  1462  1348  1349 1
  1463  1348  1419 1
  1464  1352  1423 1
  1465  1397  1457 1
  1466  1348  1438 1
  1467  1348  1443 1
  1468  1352  1431 1
  1469  1352  1443 1
  1470  1369  1443 1
  1471  1397  1431 1
  1472  1397  1438 1
  1473  1348  1428 1
  1474  1352  1415 1
  1475  1352  1425 1
  1476  1350  1427 1
  1477  1350  1429 1
  1478  1350  1433 1
  1479  1350  1417 1
  1480  1350  1435 1
  1481  1401  1435 1
  1482  1372  1412 1
  1483  1353  1404 1
  1484  1354  1403 1
  1485  1355  1406 1
  1486  1396  1402 1
  1487  1396  1406 1
  1488  1402  1440 1
  1489  1376  1414 1
  1490  1357  1409 1
  1491  1358  1408 1
  1492  1366  1388 1
  1493  1359  1446 1
  1494  1360  1445 1
  1495  1379  1420 1
  1496  1379  1383 1
  1497  1361  1390 1
  1498  1379  1417 1
  1499  1362  1389 1
  1500  1363  1392 1
  1501  1364  1391 1
  1502  1382  1392 1
  1503  1365  1386 1
  1504  1378  1382 1
  1505  1378  1416 1
  1506  1382  1386 1
  1507  1378  1422 1
  1508  1395  1401 1
  1509  1371  1412 1
  1510  1395  1407 1
  1511  1407  1412 1
  1512  1373  1413 1
  1513  1374  1413 1
  1514  1375  1414 1
  1515  1490  1499 1
  1516  1490  1524 1
  1517  1524  1530 1
  1518  1490  1533 1
  1519  1384  1388 1
  1520  1380  1384 1
  1521  1380  1418 1
  1522  1380  1419 1
  1523  1384  1389 1
  1524  1381  1385 1
  1525  1385  1413 1
  1526  1381  1391 1
  1527  1383  1387 1
  1528  1387  1414 1
  1529  1383  1390 1
  1530  1399  1433 1
  1531  1503  1506 1
  1532  1507  1509 1
  1533  1505  1508 1
  1534  1507  1515 1
  1535  1505  1512 1
  1536  1503  1505 1
  1537  1503  1507 1
  1538  1505  1511 1
  1539  1455  1459 1
  1540  1474  1482 1
  1541  1474  1485 1
  1542  1459  1463 1
  1543  1474  1480 1
  1544  1459  1465 1
  1545  1457  1461 1
  1546  1447  1462 1
  1547  1450  1467 1
  1548  1457  1467 1
  1549  1462  1467 1
  1550  1448  1464 1
  1551  1449  1463 1
  1552  1451  1468 1
  1553  1453  1458 1
  1554  1458  1468 1
  1555  1458  1462 1
  1556  1452  1466 1
  1557  1461  1468 1
  1558  1454  1461 1
  1559  1456  1465 1
  1560  1470  1472 1
  1561  1472  1478 1
  1562  1470  1476 1
  1563  1473  1476 1
  1564  1473  1479 1
  1565  1473  1481 1
  1566  1473  1483 1
  1567  1476  1484 1
  1568  1476  1487 1
  1569  1493  1502 1
  1570  1502  1534 1
  1571  1504  1506 1
  1572  1504  1509 1
  1573  1504  1510 1
  1574  1506  1513 1
  1575  1510  1517 1
  1576  1510  1521 1
  1577  1509  1519 1
  1578  1510  1516 1
  1579  1508  1514 1
  1580  1508  1520 1
  1581  1508  1518 1
  1582  1525  1535 1
  1583  1527  1535 1
  1584  1526  1536 1
