@<TRIPOS>MOLECULE
frame0021
 1536 1592 0 0 0
SMALL
NO_CHARGES

@<TRIPOS>ATOM
      1 Ti1         -2.8554     2.2298    11.2464 Ti        1 MOL       0.0000
      2 Ti2          7.9750     5.1110     1.8816 Ti        1 MOL       0.0000
      3 Ti3          1.2412    -1.7064     9.4264 Ti        1 MOL       0.0000
      4 Ti4          2.7524     7.4557     3.6534 Ti        1 MOL       0.0000
      5 Ti5          1.7539     9.1340     1.7490 Ti        1 MOL       0.0000
      6 Ti6          3.1294    -1.9608    11.3798 Ti        1 MOL       0.0000
      7 Ti7         -1.9062     0.4939     9.3549 Ti        1 MOL       0.0000
      8 Ti8          5.9872     5.4135     3.7290 Ti        1 MOL       0.0000
      9 H1          -2.3536     6.1269    11.0269 H         1 MOL       0.0000
     10 H2           8.7838     1.2049     2.2023 H         1 MOL       0.0000
     11 H3          -6.8153     1.4731    10.8640 H         1 MOL       0.0000
     12 H4          11.3572     7.1153     2.0822 H         1 MOL       0.0000
     13 H5           4.1051    -5.9953    10.9939 H         1 MOL       0.0000
     14 H6          -2.3047     8.5441     2.0711 H         1 MOL       0.0000
     15 H7          -2.3867     0.4312    12.9709 H         1 MOL       0.0000
     16 H8           6.0995     4.8683     0.1817 H         1 MOL       0.0000
     17 H9           3.6394    -2.6279     5.8687 H         1 MOL       0.0000
     18 H10          1.0290     9.2927     7.2723 H         1 MOL       0.0000
     19 H11         -5.9789     3.8825     8.9990 H         1 MOL       0.0000
     20 H12         10.7298     3.0266     4.1876 H         1 MOL       0.0000
     21 H13         -3.6778     2.4351     5.6652 H         1 MOL       0.0000
     22 H14         -1.3462    10.9619     4.1022 H         1 MOL       0.0000
     23 H15          2.1461    12.2368     2.6045 H         1 MOL       0.0000
     24 H16          8.6260    -0.8139     3.4048 H         1 MOL       0.0000
     25 H17          4.8451     7.1358     2.3148 H         1 MOL       0.0000
     26 H18          0.1606     0.1420    10.7200 H         1 MOL       0.0000
     27 H19          7.3642    -0.0259     9.7695 H         1 MOL       0.0000
     28 H20          5.8831    -0.4950    10.5168 H         1 MOL       0.0000
     29 H21          7.9383     4.4077     8.6706 H         1 MOL       0.0000
     30 H22          7.3686     4.7663     7.0520 H         1 MOL       0.0000
     31 H23          6.8754    -4.9808     9.5794 H         1 MOL       0.0000
     32 H24          5.5962    -3.8802    10.0368 H         1 MOL       0.0000
     33 C1           8.5531     4.3697     4.7451 C         1 MOL       0.0000
     34 C2          -3.8160     2.4911     8.3994 C         1 MOL       0.0000
     35 C3           3.8218    -2.7171     8.5017 C         1 MOL       0.0000
     36 C4           0.8163     9.4262     4.6128 C         1 MOL       0.0000
     37 C5           9.4491     3.7654     5.7403 C         1 MOL       0.0000
     38 C6          -4.7479     3.1162     7.4223 C         1 MOL       0.0000
     39 C7           4.7619    -3.3315     7.5545 C         1 MOL       0.0000
     40 C8          -0.0735    10.0730     5.6125 C         1 MOL       0.0000
     41 C9           9.2003     3.8403     7.1467 C         1 MOL       0.0000
     42 C10         -4.5315     2.9962     6.0343 C         1 MOL       0.0000
     43 C11          5.8914    -4.0918     8.0076 C         1 MOL       0.0000
     44 C12         -1.1682    10.8460     5.1676 C         1 MOL       0.0000
     45 C13          0.1810     9.9023     6.9674 C         1 MOL       0.0000
     46 C14          4.5142    -3.1993     6.1706 C         1 MOL       0.0000
     47 C15         10.5828     3.0664     5.2646 C         1 MOL       0.0000
     48 C16         -5.8480     3.8086     7.9210 C         1 MOL       0.0000
     49 C17          8.7648     1.2840     0.0582 C         1 MOL       0.0000
     50 C18          2.2951    13.0756     0.0832 C         1 MOL       0.0000
     51 C19          6.6143    -0.0189    13.0272 C         1 MOL       0.0000
     52 C20         -6.7440     1.5235    13.0078 C         1 MOL       0.0000
     53 C21          3.4992     5.1125     5.6180 C         1 MOL       0.0000
     54 C22         -1.2569    -1.9819     7.5361 C         1 MOL       0.0000
     55 C23          3.9940    -4.3272    13.1300 C         1 MOL       0.0000
     56 C24          2.2024    11.6421     0.0457 C         1 MOL       0.0000
     57 C25          5.3165    -0.6357    13.0740 C         1 MOL       0.0000
     58 C26         -5.3417     1.9379    13.0323 C         1 MOL       0.0000
     59 C27          8.8042     0.6149     1.2879 C         1 MOL       0.0000
     60 C28         -2.3426     6.7153    11.9408 C         1 MOL       0.0000
     61 C29         -4.0954     7.8789     1.0761 C         1 MOL       0.0000
     62 C30         -7.3768     1.2938    11.7793 C         1 MOL       0.0000
     63 C31          7.3089     0.2494    11.7938 C         1 MOL       0.0000
     64 C32         -2.8062     8.3591     1.1253 C         1 MOL       0.0000
     65 C33          4.1467    -6.5225    11.9429 C         1 MOL       0.0000
     66 C34          8.8259    -0.7862     1.3695 C         1 MOL       0.0000
     67 N1           8.8810    -1.3851     2.6076 N         1 MOL       0.0000
     68 N2           6.7299     0.0665    10.5548 N         1 MOL       0.0000
     69 N3           8.1195     4.4866     7.6780 N         1 MOL       0.0000
     70 N4           6.2224    -4.2500     9.3250 N         1 MOL       0.0000
     71 O1           7.3768     4.7748     5.1109 O         1 MOL       0.0000
     72 O2          -3.0470     1.5403     8.0011 O         1 MOL       0.0000
     73 O3           4.2032    -2.5927     9.7228 O         1 MOL       0.0000
     74 O4           0.7505     9.8559     3.4131 O         1 MOL       0.0000
     75 O5           1.5868     8.4690     4.9992 O         1 MOL       0.0000
     76 O6           2.6513    -2.3487     8.0962 O         1 MOL       0.0000
     77 O7           8.9650     4.4505     3.5334 O         1 MOL       0.0000
     78 O8          -3.8580     2.9274     9.5991 O         1 MOL       0.0000
     79 O9           6.2924     4.1956     2.5344 O         1 MOL       0.0000
     80 O10         -1.3538     2.0542    10.0994 O         1 MOL       0.0000
     81 O11          7.2312     6.4829     2.9843 O         1 MOL       0.0000
     82 O12         -3.1060     0.3295    10.5921 O         1 MOL       0.0000
     83 O13          1.5006    -2.8784    10.6868 O         1 MOL       0.0000
     84 O14          3.2690     9.0170     2.9149 O         1 MOL       0.0000
     85 O15          2.4545    -0.6169    10.2227 O         1 MOL       0.0000
     86 O16          1.5628     7.2599     2.3975 O         1 MOL       0.0000
     87 O17          4.7203     4.9326     5.2637 O         1 MOL       0.0000
     88 O18         -1.9146    -0.9469     7.9143 O         1 MOL       0.0000
     89 O19          3.8718    -3.7326    11.9889 O         1 MOL       0.0000
     90 O20          2.1193    10.9406     1.1409 O         1 MOL       0.0000
     91 O21          4.6739    -0.9445    11.9838 O         1 MOL       0.0000
     92 O22         -0.1167     9.1049     1.0808 O         1 MOL       0.0000
     93 O23         -0.0951    -2.2764     7.9939 O         1 MOL       0.0000
     94 O24          2.7573     6.0334     5.1246 O         1 MOL       0.0000
     95 O25          9.4121     6.1301     1.1270 O         1 MOL       0.0000
     96 O26         -4.7422     2.1697    11.9148 O         1 MOL       0.0000
     97 O27          8.6166     3.3758     1.1564 O         1 MOL       0.0000
     98 O28         -2.4740     3.9521    11.9961 O         1 MOL       0.0000
     99 O29          4.4842     6.5871     3.0354 O         1 MOL       0.0000
    100 O30         -0.2177    -0.4167    10.0165 O         1 MOL       0.0000
    101 O31          6.9383     5.3620     0.1026 O         1 MOL       0.0000
    102 O32         -2.2643     1.3980    13.0309 O         1 MOL       0.0000
    103 H25          3.7533     1.5091     8.5713 H         1 MOL       0.0000
    104 H26         -6.6119    10.5801     6.1651 H         1 MOL       0.0000
    105 H27          4.4342    10.1040     5.7348 H         1 MOL       0.0000
    106 H28          4.7344     3.0374     6.8428 H         1 MOL       0.0000
    107 H29          0.1353     3.8400     8.5809 H         1 MOL       0.0000
    108 H30         12.1059    -2.7242     7.1088 H         1 MOL       0.0000
    109 H31          1.4178     1.8547     9.3253 H         1 MOL       0.0000
    110 H32          1.1639     5.4326     6.9289 H         1 MOL       0.0000
    111 H33          5.7791     8.3657     4.5776 H         1 MOL       0.0000
    112 H34          8.2425     8.2866     4.8544 H         1 MOL       0.0000
    113 C35          2.9766     4.2852     6.7324 C         1 MOL       0.0000
    114 C36          1.8740     2.5653     8.6380 C         1 MOL       0.0000
    115 C37          6.2768     9.1073     5.2024 C         1 MOL       0.0000
    116 C38         -1.9244    -2.9771     6.6665 C         1 MOL       0.0000
    117 C39          1.7067     4.5543     7.2743 C         1 MOL       0.0000
    118 C40          3.1863     2.3585     8.1936 C         1 MOL       0.0000
    119 C41          5.5189    10.1059     5.8265 C         1 MOL       0.0000
    120 C42         -7.6893    10.6042     6.0175 C         1 MOL       0.0000
    121 C43          7.6688     9.0727     5.3427 C         1 MOL       0.0000
    122 C44         12.6757    -3.5076     6.6165 C         1 MOL       0.0000
    123 C45          3.7345     3.2100     7.2346 C         1 MOL       0.0000
    124 C46          1.1461     3.6809     8.2081 C         1 MOL       0.0000
    125 N5           5.2273    10.4988     1.2491 N         1 MOL       0.0000
    126 N6           1.9430     2.4097    12.9488 N         1 MOL       0.0000
    127 C47          0.4389     3.9741    13.0822 C         1 MOL       0.0000
    128 C48          1.2684     3.3492    12.2020 C         1 MOL       0.0000
    129 C49          4.2201     2.5403    11.9229 C         1 MOL       0.0000
    130 C50          4.8424    11.1841     2.5032 C         1 MOL       0.0000
    131 C51          6.1844     9.5590     1.1314 C         1 MOL       0.0000
    132 C52          3.0816     1.6463    12.4106 C         1 MOL       0.0000
    133 H35         -0.1103     4.8969    12.9388 H         1 MOL       0.0000
    134 H36          1.4438     3.5268    11.1595 H         1 MOL       0.0000
    135 H37          3.8828     3.2186    11.1315 H         1 MOL       0.0000
    136 H38          4.8314    12.2540     2.3037 H         1 MOL       0.0000
    137 H39          4.6330     3.1559    12.7317 H         1 MOL       0.0000
    138 H40          3.8700    10.8423     2.8242 H         1 MOL       0.0000
    139 H41          5.0267     1.9250    11.5029 H         1 MOL       0.0000
    140 H42          2.7130     1.0228    11.5878 H         1 MOL       0.0000
    141 H43          5.5673    10.9941     3.3021 H         1 MOL       0.0000
    142 H44          6.5897     8.9832     1.9673 H         1 MOL       0.0000
    143 H45          8.0444     8.0416     0.1194 H         1 MOL       0.0000
    144 N7           2.0595     7.1616    12.8674 N         1 MOL       0.0000
    145 C53          0.6144     0.6431     1.2839 C         1 MOL       0.0000
    146 C54          9.4860    -5.2621     9.9695 C         1 MOL       0.0000
    147 O33         14.0424    -0.2709     2.6897 O         1 MOL       0.0000
    148 O34          9.5585    12.0309     1.0902 O         1 MOL       0.0000
    149 O35          1.2203     5.9578    10.5847 O         1 MOL       0.0000
    150 O36          3.5520     5.9733     9.4814 O         1 MOL       0.0000
    151 F1           0.4530     1.6214     2.3016 F         1 MOL       0.0000
    152 F2           9.3947    -3.0535    11.7078 F         1 MOL       0.0000
    153 F3           1.8539     1.0551     0.6894 F         1 MOL       0.0000
    154 F4          -0.3201     0.1090     4.1486 F         1 MOL       0.0000
    155 F5           8.9369    -4.0894     9.7853 F         1 MOL       0.0000
    156 F6           2.7397     8.7692     8.2803 F         1 MOL       0.0000
    157 S1           7.6397    13.6269     0.7743 S         1 MOL       0.0000
    158 S2           2.5834     6.5665    10.5412 S         1 MOL       0.0000
    159 N8           3.3789     1.4800     3.5408 N         1 MOL       0.0000
    160 N9           1.6594     2.3376     4.6238 N         1 MOL       0.0000
    161 C55          4.4743     1.3921     2.5443 C         1 MOL       0.0000
    162 C56          2.4820     2.4988     3.5746 C         1 MOL       0.0000
    163 C57          3.1647     0.6962     4.6402 C         1 MOL       0.0000
    164 C58          4.4825     0.0058     1.9124 C         1 MOL       0.0000
    165 C59          2.0702     1.1749     5.2879 C         1 MOL       0.0000
    166 C60          0.4057     3.0604     4.7982 C         1 MOL       0.0000
    167 H46          5.4169     1.6333     3.0478 H         1 MOL       0.0000
    168 H47          4.2859     2.1749     1.7967 H         1 MOL       0.0000
    169 H48          2.3401     3.2357     2.7922 H         1 MOL       0.0000
    170 H49          5.4363    -0.1929     1.4147 H         1 MOL       0.0000
    171 H50          3.7423    -0.2420     4.7965 H         1 MOL       0.0000
    172 H51          0.3935     3.4680     5.8164 H         1 MOL       0.0000
    173 H52          0.3998     3.8751     4.0577 H         1 MOL       0.0000
    174 H53          4.3088    -0.7798     2.6589 H         1 MOL       0.0000
    175 H54          1.5805     0.8287     6.1864 H         1 MOL       0.0000
    176 H55          3.6813    -0.1001     1.1798 H         1 MOL       0.0000
    177 H56         -0.4445     2.3853     4.6186 H         1 MOL       0.0000
    178 N10         -0.3243     0.5708     0.3627 N         1 MOL       0.0000
    179 C61         -1.5219    -0.3247     3.6959 C         1 MOL       0.0000
    180 C62          9.0117    -6.0034    11.2965 C         1 MOL       0.0000
    181 O37         -4.2925    -3.8445    12.8085 O         1 MOL       0.0000
    182 O38          1.7608    -1.5562     2.9084 O         1 MOL       0.0000
    183 O39         -3.5337    -5.7947    11.3922 O         1 MOL       0.0000
    184 O40         -4.1652    13.1888     0.4751 O         1 MOL       0.0000
    185 F7          -2.5429    -0.3197     4.8110 F         1 MOL       0.0000
    186 F8           7.8899    -5.3885    11.6929 F         1 MOL       0.0000
    187 F9           6.6699    12.4307     1.4638 F         1 MOL       0.0000
    188 F10         -1.2758    -1.6760     3.4209 F         1 MOL       0.0000
    189 F11         10.8915    -5.1848     9.7712 F         1 MOL       0.0000
    190 F12          3.5953     5.6415    11.4192 F         1 MOL       0.0000
    191 S3          -4.5541    -5.1404    12.1867 S         1 MOL       0.0000
    192 S4          -5.2296    13.2498     1.4484 S         1 MOL       0.0000
    193 Ti9         -7.4904    -4.8362    24.3414 Ti        1 MOL       0.0000
    194 Ti10         3.3400    -1.9550    14.9766 Ti        1 MOL       0.0000
    195 Ti11        -3.3938    -8.7724    22.5214 Ti        1 MOL       0.0000
    196 Ti12        -1.8826     0.3897    16.7484 Ti        1 MOL       0.0000
    197 Ti13        -2.8811     2.0680    14.8440 Ti        1 MOL       0.0000
    198 Ti14        -1.5056    -9.0268    24.4748 Ti        1 MOL       0.0000
    199 Ti15        -6.5412    -6.5721    22.4499 Ti        1 MOL       0.0000
    200 Ti16         1.3522    -1.6525    16.8240 Ti        1 MOL       0.0000
    201 H57         -6.9886    -0.9391    24.1219 H         1 MOL       0.0000
    202 H58          4.1488    -5.8611    15.2973 H         1 MOL       0.0000
    203 H59        -11.4503    -5.5929    23.9590 H         1 MOL       0.0000
    204 H60          6.7222     0.0493    15.1772 H         1 MOL       0.0000
    205 H61         -0.5299   -13.0613    24.0889 H         1 MOL       0.0000
    206 H62         -6.9397     1.4781    15.1661 H         1 MOL       0.0000
    207 H63         -7.0217    -6.6348    26.0659 H         1 MOL       0.0000
    208 H64          1.4645    -2.1977    13.2767 H         1 MOL       0.0000
    209 H65         -0.9956    -9.6939    18.9637 H         1 MOL       0.0000
    210 H66         -3.6060     2.2267    20.3673 H         1 MOL       0.0000
    211 H67        -10.6139    -3.1835    22.0940 H         1 MOL       0.0000
    212 H68          6.0948    -4.0393    17.2826 H         1 MOL       0.0000
    213 H69         -8.3127    -4.6309    18.7602 H         1 MOL       0.0000
    214 H70         -5.9812     3.8959    17.1972 H         1 MOL       0.0000
    215 H71         -2.4889     5.1708    15.6995 H         1 MOL       0.0000
    216 H72          3.9910    -7.8799    16.4998 H         1 MOL       0.0000
    217 H73          0.2101     0.0698    15.4098 H         1 MOL       0.0000
    218 H74         -4.4744    -6.9240    23.8150 H         1 MOL       0.0000
    219 H75          2.7292    -7.0919    22.8645 H         1 MOL       0.0000
    220 H76          1.2481    -7.5610    23.6118 H         1 MOL       0.0000
    221 H77          3.3033    -2.6583    21.7655 H         1 MOL       0.0000
    222 H78          2.7336    -2.2997    20.1470 H         1 MOL       0.0000
    223 H79          2.2404   -12.0468    22.6744 H         1 MOL       0.0000
    224 H80          0.9612   -10.9462    23.1318 H         1 MOL       0.0000
    225 C63          3.9181    -2.6963    17.8401 C         1 MOL       0.0000
    226 C64         -8.4510    -4.5749    21.4944 C         1 MOL       0.0000
    227 C65         -0.8132    -9.7831    21.5967 C         1 MOL       0.0000
    228 C66         -3.8187     2.3602    17.7078 C         1 MOL       0.0000
    229 C67          4.8141    -3.3006    18.8353 C         1 MOL       0.0000
    230 C68         -9.3829    -3.9498    20.5173 C         1 MOL       0.0000
    231 C69          0.1269   -10.3975    20.6495 C         1 MOL       0.0000
    232 C70         -4.7085     3.0070    18.7075 C         1 MOL       0.0000
    233 C71          4.5653    -3.2257    20.2417 C         1 MOL       0.0000
    234 C72         -9.1665    -4.0698    19.1293 C         1 MOL       0.0000
    235 C73          1.2564   -11.1578    21.1026 C         1 MOL       0.0000
    236 C74         -5.8032     3.7800    18.2626 C         1 MOL       0.0000
    237 C75         -4.4540     2.8362    20.0624 C         1 MOL       0.0000
    238 C76         -0.1208   -10.2653    19.2656 C         1 MOL       0.0000
    239 C77          5.9478    -3.9996    18.3596 C         1 MOL       0.0000
    240 C78        -10.4831    -3.2574    21.0160 C         1 MOL       0.0000
    241 C79          4.1298    -5.7820    13.1532 C         1 MOL       0.0000
    242 C80         -2.3399     6.0096    13.1782 C         1 MOL       0.0000
    243 C81          1.9793    -7.0849    26.1222 C         1 MOL       0.0000
    244 C82        -11.3790    -5.5425    26.1028 C         1 MOL       0.0000
    245 C83         -1.1358    -1.9535    18.7130 C         1 MOL       0.0000
    246 C84         -5.8919    -9.0479    20.6311 C         1 MOL       0.0000
    247 C85         -0.6410   -11.3932    26.2250 C         1 MOL       0.0000
    248 C86         -2.4326     4.5761    13.1407 C         1 MOL       0.0000
    249 C87          0.6815    -7.7017    26.1690 C         1 MOL       0.0000
    250 C88         -9.9767    -5.1281    26.1273 C         1 MOL       0.0000
    251 C89          4.1692    -6.4511    14.3829 C         1 MOL       0.0000
    252 C90         -6.9776    -0.3507    25.0358 C         1 MOL       0.0000
    253 C91         -8.7304     0.8129    14.1711 C         1 MOL       0.0000
    254 C92        -12.0118    -5.7722    24.8743 C         1 MOL       0.0000
    255 C93          2.6739    -6.8166    24.8888 C         1 MOL       0.0000
    256 C94         -7.4412     1.2931    14.2203 C         1 MOL       0.0000
    257 C95         -0.4883   -13.5885    25.0379 C         1 MOL       0.0000
    258 C96          4.1909    -7.8522    14.4645 C         1 MOL       0.0000
    259 N11          4.2460    -8.4511    15.7026 N         1 MOL       0.0000
    260 N12          2.0949    -6.9995    23.6498 N         1 MOL       0.0000
    261 N13          3.4845    -2.5794    20.7730 N         1 MOL       0.0000
    262 N14          1.5874   -11.3160    22.4200 N         1 MOL       0.0000
    263 O41          2.7418    -2.2912    18.2059 O         1 MOL       0.0000
    264 O42         -7.6820    -5.5257    21.0961 O         1 MOL       0.0000
    265 O43         -0.4318    -9.6587    22.8178 O         1 MOL       0.0000
    266 O44         -3.8845     2.7899    16.5082 O         1 MOL       0.0000
    267 O45         -3.0482     1.4030    18.0942 O         1 MOL       0.0000
    268 O46         -1.9837    -9.4147    21.1912 O         1 MOL       0.0000
    269 O47          4.3300    -2.6155    16.6284 O         1 MOL       0.0000
    270 O48         -8.4930    -4.1386    22.6941 O         1 MOL       0.0000
    271 O49          1.6574    -2.8704    15.6294 O         1 MOL       0.0000
    272 O50         -5.9888    -5.0118    23.1944 O         1 MOL       0.0000
    273 O51          2.5962    -0.5831    16.0793 O         1 MOL       0.0000
    274 O52         -7.7410    -6.7365    23.6871 O         1 MOL       0.0000
    275 O53         -3.1344    -9.9444    23.7818 O         1 MOL       0.0000
    276 O54         -1.3660     1.9510    16.0099 O         1 MOL       0.0000
    277 O55         -2.1805    -7.6829    23.3177 O         1 MOL       0.0000
    278 O56         -3.0722     0.1939    15.4925 O         1 MOL       0.0000
    279 O57          0.0853    -2.1334    18.3587 O         1 MOL       0.0000
    280 O58         -6.5496    -8.0129    21.0093 O         1 MOL       0.0000
    281 O59         -0.7632   -10.7986    25.0839 O         1 MOL       0.0000
    282 O60         -2.5157     3.8746    14.2359 O         1 MOL       0.0000
    283 O61          0.0389    -8.0105    25.0788 O         1 MOL       0.0000
    284 O62         -4.7517     2.0389    14.1758 O         1 MOL       0.0000
    285 O63         -4.7301    -9.3424    21.0889 O         1 MOL       0.0000
    286 O64         -1.8777    -1.0326    18.2196 O         1 MOL       0.0000
    287 O65          4.7771    -0.9359    14.2220 O         1 MOL       0.0000
    288 O66         -9.3772    -4.8963    25.0098 O         1 MOL       0.0000
    289 O67          3.9816    -3.6902    14.2514 O         1 MOL       0.0000
    290 O68         -7.1090    -3.1139    25.0911 O         1 MOL       0.0000
    291 O69         -0.1508    -0.4789    16.1304 O         1 MOL       0.0000
    292 O70         -4.8527    -7.4827    23.1115 O         1 MOL       0.0000
    293 O71          2.3033    -1.7041    13.1976 O         1 MOL       0.0000
    294 O72         -6.8993    -5.6680    26.1259 O         1 MOL       0.0000
    295 H81         -0.8817    -5.5569    21.6663 H         1 MOL       0.0000
    296 H82        -11.2469     3.5141    19.2601 H         1 MOL       0.0000
    297 H83         -0.2008     3.0380    18.8298 H         1 MOL       0.0000
    298 H84          0.0994    -4.0286    19.9378 H         1 MOL       0.0000
    299 H85         -4.4997    -3.2260    21.6759 H         1 MOL       0.0000
    300 H86          7.4709    -9.7902    20.2038 H         1 MOL       0.0000
    301 H87         -3.2172    -5.2113    22.4203 H         1 MOL       0.0000
    302 H88         -3.4711    -1.6334    20.0239 H         1 MOL       0.0000
    303 H89          1.1441     1.2997    17.6726 H         1 MOL       0.0000
    304 H90          3.6075     1.2206    17.9494 H         1 MOL       0.0000
    305 C97         -1.6584    -2.7808    19.8274 C         1 MOL       0.0000
    306 C98         -2.7610    -4.5007    21.7330 C         1 MOL       0.0000
    307 C99          1.6418     2.0413    18.2974 C         1 MOL       0.0000
    308 C100        -6.5594   -10.0431    19.7615 C         1 MOL       0.0000
    309 C101        -2.9283    -2.5117    20.3693 C         1 MOL       0.0000
    310 C102        -1.4487    -4.7075    21.2886 C         1 MOL       0.0000
    311 C103         0.8839     3.0399    18.9215 C         1 MOL       0.0000
    312 C104       -12.3243     3.5382    19.1125 C         1 MOL       0.0000
    313 C105         3.0338     2.0067    18.4377 C         1 MOL       0.0000
    314 C106         8.0407   -10.5736    19.7115 C         1 MOL       0.0000
    315 C107        -0.9005    -3.8560    20.3296 C         1 MOL       0.0000
    316 C108        -3.4889    -3.3851    21.3031 C         1 MOL       0.0000
    317 N15          0.5923     3.4328    14.3441 N         1 MOL       0.0000
    318 N16         -2.6920    -4.6563    26.0438 N         1 MOL       0.0000
    319 C109        -4.1961    -3.0919    26.1772 C         1 MOL       0.0000
    320 C110        -3.3666    -3.7168    25.2970 C         1 MOL       0.0000
    321 C111        -0.4149    -4.5257    25.0179 C         1 MOL       0.0000
    322 C112         0.2074     4.1181    15.5982 C         1 MOL       0.0000
    323 C113         1.5494     2.4930    14.2264 C         1 MOL       0.0000
    324 C114        -1.5534    -5.4197    25.5056 C         1 MOL       0.0000
    325 H91         -4.7453    -2.1691    26.0338 H         1 MOL       0.0000
    326 H92         -3.1912    -3.5392    24.2545 H         1 MOL       0.0000
    327 H93         -0.7522    -3.8474    24.2265 H         1 MOL       0.0000
    328 H94          0.1964     5.1880    15.3987 H         1 MOL       0.0000
    329 H95         -0.0020    -3.9101    25.8267 H         1 MOL       0.0000
    330 H96         -0.7650     3.7763    15.9192 H         1 MOL       0.0000
    331 H97          0.3917    -5.1410    24.5979 H         1 MOL       0.0000
    332 H98         -1.9220    -6.0432    24.6828 H         1 MOL       0.0000
    333 H99          0.9323     3.9281    16.3971 H         1 MOL       0.0000
    334 H100         1.9547     1.9172    15.0623 H         1 MOL       0.0000
    335 H101         3.4094     0.9756    13.2144 H         1 MOL       0.0000
    336 N17         -2.5755     0.0956    25.9624 N         1 MOL       0.0000
    337 C115        -4.0206    -6.4229    14.3789 C         1 MOL       0.0000
    338 C116         4.8510   -12.3281    23.0645 C         1 MOL       0.0000
    339 O73          9.4074    -7.3369    15.7847 O         1 MOL       0.0000
    340 O74          4.9235     4.9649    14.1852 O         1 MOL       0.0000
    341 O75         -3.4147    -1.1082    23.6797 O         1 MOL       0.0000
    342 O76         -1.0830    -1.0927    22.5764 O         1 MOL       0.0000
    343 F13         -4.1820    -5.4446    15.3966 F         1 MOL       0.0000
    344 F14          4.7597   -10.1195    24.8028 F         1 MOL       0.0000
    345 F15         -2.7811    -6.0109    13.7844 F         1 MOL       0.0000
    346 F16         -4.9551    -6.9570    17.2436 F         1 MOL       0.0000
    347 F17          4.3019   -11.1554    22.8803 F         1 MOL       0.0000
    348 F18         -1.8953     1.7032    21.3753 F         1 MOL       0.0000
    349 S5           3.0047     6.5609    13.8693 S         1 MOL       0.0000
    350 S6          -2.0516    -0.4995    23.6362 S         1 MOL       0.0000
    351 N18         -1.2561    -5.5860    16.6358 N         1 MOL       0.0000
    352 N19         -2.9756    -4.7284    17.7188 N         1 MOL       0.0000
    353 C117        -0.1607    -5.6739    15.6393 C         1 MOL       0.0000
    354 C118        -2.1530    -4.5672    16.6696 C         1 MOL       0.0000
    355 C119        -1.4703    -6.3698    17.7352 C         1 MOL       0.0000
    356 C120        -0.1525    -7.0602    15.0074 C         1 MOL       0.0000
    357 C121        -2.5648    -5.8911    18.3829 C         1 MOL       0.0000
    358 C122        -4.2293    -4.0056    17.8932 C         1 MOL       0.0000
    359 H102         0.7819    -5.4327    16.1428 H         1 MOL       0.0000
    360 H103        -0.3491    -4.8911    14.8917 H         1 MOL       0.0000
    361 H104        -2.2949    -3.8303    15.8872 H         1 MOL       0.0000
    362 H105         0.8013    -7.2589    14.5097 H         1 MOL       0.0000
    363 H106        -0.8927    -7.3080    17.8915 H         1 MOL       0.0000
    364 H107        -4.2415    -3.5980    18.9114 H         1 MOL       0.0000
    365 H108        -4.2352    -3.1909    17.1527 H         1 MOL       0.0000
    366 H109        -0.3262    -7.8458    15.7539 H         1 MOL       0.0000
    367 H110        -3.0545    -6.2373    19.2814 H         1 MOL       0.0000
    368 H111        -0.9537    -7.1661    14.2748 H         1 MOL       0.0000
    369 H112        -5.0795    -4.6807    17.7136 H         1 MOL       0.0000
    370 N20         -4.9593    -6.4952    13.4577 N         1 MOL       0.0000
    371 C123        -6.1569    -7.3907    16.7909 C         1 MOL       0.0000
    372 C124         4.3767   -13.0694    24.3915 C         1 MOL       0.0000
    373 O77         -8.9275   -10.9105    25.9035 O         1 MOL       0.0000
    374 O78         -2.8742    -8.6222    16.0034 O         1 MOL       0.0000
    375 O79         -8.1687   -12.8607    24.4872 O         1 MOL       0.0000
    376 O80         -8.8002     6.1228    13.5701 O         1 MOL       0.0000
    377 F19         -7.1779    -7.3857    17.9060 F         1 MOL       0.0000
    378 F20          3.2549   -12.4545    24.7879 F         1 MOL       0.0000
    379 F21          2.0349     5.3647    14.5588 F         1 MOL       0.0000
    380 F22         -5.9108    -8.7420    16.5159 F         1 MOL       0.0000
    381 F23          6.2565   -12.2508    22.8662 F         1 MOL       0.0000
    382 F24         -1.0397    -1.4245    24.5142 F         1 MOL       0.0000
    383 S7          -9.1891   -12.2064    25.2817 S         1 MOL       0.0000
    384 S8          -9.8646     6.1838    14.5434 S         1 MOL       0.0000
    385 Ti17        -9.3724    16.8428    11.1894 Ti        1 MOL       0.0000
    386 Ti18         1.4580    19.7240     1.8246 Ti        1 MOL       0.0000
    387 Ti19        -5.2758    12.9066     9.3694 Ti        1 MOL       0.0000
    388 Ti20        -3.7646    22.0687     3.5964 Ti        1 MOL       0.0000
    389 Ti21        -4.7631    23.7470     1.6920 Ti        1 MOL       0.0000
    390 Ti22        -3.3876    12.6522    11.3228 Ti        1 MOL       0.0000
    391 Ti23        -8.4232    15.1069     9.2979 Ti        1 MOL       0.0000
    392 Ti24        -0.5298    20.0265     3.6721 Ti        1 MOL       0.0000
    393 H113        -8.8706    20.7399    10.9699 H         1 MOL       0.0000
    394 H114         2.2668    15.8179     2.1453 H         1 MOL       0.0000
    395 H115       -13.3323    16.0861    10.8070 H         1 MOL       0.0000
    396 H116         4.8402    21.7283     2.0252 H         1 MOL       0.0000
    397 H117        -2.4119     8.6177    10.9369 H         1 MOL       0.0000
    398 H118        -8.8217    23.1571     2.0141 H         1 MOL       0.0000
    399 H119        -8.9037    15.0442    12.9139 H         1 MOL       0.0000
    400 H120        -0.4175    19.4813     0.1247 H         1 MOL       0.0000
    401 H121        -2.8776    11.9851     5.8117 H         1 MOL       0.0000
    402 H122        -5.4880    23.9057     7.2153 H         1 MOL       0.0000
    403 H123       -12.4959    18.4955     8.9420 H         1 MOL       0.0000
    404 H124         4.2128    17.6396     4.1306 H         1 MOL       0.0000
    405 H125       -10.1948    17.0481     5.6082 H         1 MOL       0.0000
    406 H126        -7.8632    25.5749     4.0452 H         1 MOL       0.0000
    407 H127        -4.3709    26.8498     2.5475 H         1 MOL       0.0000
    408 H128         2.1090    13.7991     3.3478 H         1 MOL       0.0000
    409 H129        -1.6719    21.7488     2.2578 H         1 MOL       0.0000
    410 H130        -6.3565    14.7550    10.6630 H         1 MOL       0.0000
    411 H131         0.8472    14.5871     9.7125 H         1 MOL       0.0000
    412 H132        -0.6339    14.1180    10.4598 H         1 MOL       0.0000
    413 H133         1.4213    19.0207     8.6136 H         1 MOL       0.0000
    414 H134         0.8516    19.3793     6.9950 H         1 MOL       0.0000
    415 H135         0.3584     9.6322     9.5224 H         1 MOL       0.0000
    416 H136        -0.9208    10.7328     9.9798 H         1 MOL       0.0000
    417 C125         2.0361    18.9827     4.6881 C         1 MOL       0.0000
    418 C126       -10.3330    17.1042     8.3424 C         1 MOL       0.0000
    419 C127        -2.6952    11.8959     8.4447 C         1 MOL       0.0000
    420 C128        -5.7007    24.0392     4.5557 C         1 MOL       0.0000
    421 C129         2.9321    18.3784     5.6833 C         1 MOL       0.0000
    422 C130       -11.2649    17.7292     7.3653 C         1 MOL       0.0000
    423 C131        -1.7550    11.2815     7.4975 C         1 MOL       0.0000
    424 C132        -6.5905    24.6860     5.5555 C         1 MOL       0.0000
    425 C133         2.6833    18.4533     7.0897 C         1 MOL       0.0000
    426 C134       -11.0485    17.6092     5.9773 C         1 MOL       0.0000
    427 C135        -0.6256    10.5212     7.9506 C         1 MOL       0.0000
    428 C136        -7.6852    25.4590     5.1106 C         1 MOL       0.0000
    429 C137        -6.3360    24.5152     6.9104 C         1 MOL       0.0000
    430 C138        -2.0028    11.4136     6.1136 C         1 MOL       0.0000
    431 C139         4.0658    17.6794     5.2076 C         1 MOL       0.0000
    432 C140       -12.3651    18.4216     7.8640 C         1 MOL       0.0000
    433 C141         2.2478    15.8970     0.0012 C         1 MOL       0.0000
    434 C142        -4.2219    27.6886     0.0262 C         1 MOL       0.0000
    435 C143         0.0973    14.5941    12.9702 C         1 MOL       0.0000
    436 C144       -13.2610    16.1365    12.9508 C         1 MOL       0.0000
    437 C145        -3.0178    19.7255     5.5610 C         1 MOL       0.0000
    438 C146        -7.7739    12.6311     7.4791 C         1 MOL       0.0000
    439 C147        -2.5230    10.2858    13.0730 C         1 MOL       0.0000
    440 C148        -4.3146    26.2551    -0.0113 C         1 MOL       0.0000
    441 C149        -1.2006    13.9773    13.0170 C         1 MOL       0.0000
    442 C150       -11.8587    16.5509    12.9753 C         1 MOL       0.0000
    443 C151         2.2872    15.2279     1.2309 C         1 MOL       0.0000
    444 C152        -8.8596    21.3283    11.8838 C         1 MOL       0.0000
    445 C153       -10.6124    22.4919     1.0191 C         1 MOL       0.0000
    446 C154       -13.8938    15.9068    11.7223 C         1 MOL       0.0000
    447 C155         0.7919    14.8624    11.7368 C         1 MOL       0.0000
    448 C156        -9.3232    22.9721     1.0683 C         1 MOL       0.0000
    449 C157        -2.3703     8.0905    11.8859 C         1 MOL       0.0000
    450 C158         2.3089    13.8268     1.3125 C         1 MOL       0.0000
    451 N21          2.3640    13.2279     2.5506 N         1 MOL       0.0000
    452 N22          0.2129    14.6795    10.4978 N         1 MOL       0.0000
    453 N23          1.6025    19.0996     7.6210 N         1 MOL       0.0000
    454 N24         -0.2946    10.3630     9.2680 N         1 MOL       0.0000
    455 O81          0.8598    19.3878     5.0539 O         1 MOL       0.0000
    456 O82         -9.5640    16.1533     7.9441 O         1 MOL       0.0000
    457 O83         -2.3138    12.0203     9.6658 O         1 MOL       0.0000
    458 O84         -5.7665    24.4689     3.3561 O         1 MOL       0.0000
    459 O85         -4.9302    23.0820     4.9422 O         1 MOL       0.0000
    460 O86         -3.8657    12.2643     8.0392 O         1 MOL       0.0000
    461 O87          2.4480    19.0635     3.4764 O         1 MOL       0.0000
    462 O88        -10.3750    17.5404     9.5421 O         1 MOL       0.0000
    463 O89         -0.2246    18.8086     2.4774 O         1 MOL       0.0000
    464 O90         -7.8708    16.6672    10.0424 O         1 MOL       0.0000
    465 O91          0.7142    21.0959     2.9273 O         1 MOL       0.0000
    466 O92         -9.6230    14.9425    10.5351 O         1 MOL       0.0000
    467 O93         -5.0164    11.7346    10.6298 O         1 MOL       0.0000
    468 O94         -3.2480    23.6300     2.8579 O         1 MOL       0.0000
    469 O95         -4.0625    13.9961    10.1657 O         1 MOL       0.0000
    470 O96         -4.9542    21.8729     2.3405 O         1 MOL       0.0000
    471 O97         -1.7967    19.5457     5.2067 O         1 MOL       0.0000
    472 O98         -8.4316    13.6661     7.8573 O         1 MOL       0.0000
    473 O99         -2.6452    10.8804    11.9319 O         1 MOL       0.0000
    474 O100        -4.3977    25.5536     1.0839 O         1 MOL       0.0000
    475 O101        -1.8431    13.6685    11.9268 O         1 MOL       0.0000
    476 O102        -6.6337    23.7179     1.0238 O         1 MOL       0.0000
    477 O103        -6.6121    12.3366     7.9369 O         1 MOL       0.0000
    478 O104        -3.7597    20.6464     5.0676 O         1 MOL       0.0000
    479 O105         2.8951    20.7431     1.0700 O         1 MOL       0.0000
    480 O106       -11.2592    16.7827    11.8578 O         1 MOL       0.0000
    481 O107         2.0995    17.9888     1.0994 O         1 MOL       0.0000
    482 O108        -8.9910    18.5650    11.9391 O         1 MOL       0.0000
    483 O109        -2.0328    21.2001     2.9784 O         1 MOL       0.0000
    484 O110        -6.7347    14.1963     9.9595 O         1 MOL       0.0000
    485 O111         0.4213    19.9749     0.0456 O         1 MOL       0.0000
    486 O112        -8.7813    16.0110    12.9739 O         1 MOL       0.0000
    487 H137        -2.7637    16.1221     8.5143 H         1 MOL       0.0000
    488 H138       -13.1289    25.1931     6.1081 H         1 MOL       0.0000
    489 H139        -2.0828    24.7170     5.6778 H         1 MOL       0.0000
    490 H140        -1.7826    17.6504     6.7858 H         1 MOL       0.0000
    491 H141        -6.3817    18.4530     8.5239 H         1 MOL       0.0000
    492 H142         5.5889    11.8888     7.0518 H         1 MOL       0.0000
    493 H143        -5.0992    16.4677     9.2683 H         1 MOL       0.0000
    494 H144        -5.3531    20.0456     6.8719 H         1 MOL       0.0000
    495 H145        -0.7379    22.9787     4.5206 H         1 MOL       0.0000
    496 H146         1.7255    22.8996     4.7974 H         1 MOL       0.0000
    497 C159        -3.5404    18.8982     6.6754 C         1 MOL       0.0000
    498 C160        -4.6430    17.1783     8.5810 C         1 MOL       0.0000
    499 C161        -0.2402    23.7203     5.1454 C         1 MOL       0.0000
    500 C162        -8.4414    11.6359     6.6095 C         1 MOL       0.0000
    501 C163        -4.8103    19.1673     7.2173 C         1 MOL       0.0000
    502 C164        -3.3307    16.9715     8.1366 C         1 MOL       0.0000
    503 C165        -0.9981    24.7189     5.7695 C         1 MOL       0.0000
    504 C166       -14.2063    25.2172     5.9605 C         1 MOL       0.0000
    505 C167         1.1518    23.6857     5.2857 C         1 MOL       0.0000
    506 C168         6.1587    11.1054     6.5595 C         1 MOL       0.0000
    507 C169        -2.7825    17.8230     7.1776 C         1 MOL       0.0000
    508 C170        -5.3709    18.2939     8.1511 C         1 MOL       0.0000
    509 N25         -1.2897    25.1118     1.1921 N         1 MOL       0.0000
    510 N26         -4.5740    17.0227    12.8918 N         1 MOL       0.0000
    511 C171        -6.0781    18.5871    13.0252 C         1 MOL       0.0000
    512 C172        -5.2486    17.9622    12.1450 C         1 MOL       0.0000
    513 C173        -2.2969    17.1533    11.8659 C         1 MOL       0.0000
    514 C174        -1.6746    25.7971     2.4462 C         1 MOL       0.0000
    515 C175        -0.3326    24.1720     1.0744 C         1 MOL       0.0000
    516 C176        -3.4354    16.2593    12.3536 C         1 MOL       0.0000
    517 H147        -6.6273    19.5099    12.8818 H         1 MOL       0.0000
    518 H148        -5.0732    18.1398    11.1025 H         1 MOL       0.0000
    519 H149        -2.6342    17.8316    11.0745 H         1 MOL       0.0000
    520 H150        -1.6856    26.8670     2.2467 H         1 MOL       0.0000
    521 H151        -1.8840    17.7689    12.6747 H         1 MOL       0.0000
    522 H152        -2.6470    25.4553     2.7672 H         1 MOL       0.0000
    523 H153        -1.4903    16.5380    11.4459 H         1 MOL       0.0000
    524 H154        -3.8040    15.6358    11.5308 H         1 MOL       0.0000
    525 H155        -0.9497    25.6071     3.2451 H         1 MOL       0.0000
    526 H156         0.0727    23.5962     1.9103 H         1 MOL       0.0000
    527 H157         1.5274    22.6546     0.0624 H         1 MOL       0.0000
    528 N27         -4.4575    21.7746    12.8104 N         1 MOL       0.0000
    529 C177        -5.9026    15.2561     1.2269 C         1 MOL       0.0000
    530 C178         2.9690     9.3509     9.9125 C         1 MOL       0.0000
    531 O113         7.5254    14.3421     2.6327 O         1 MOL       0.0000
    532 O114         3.0415    26.6439     1.0332 O         1 MOL       0.0000
    533 O115        -5.2967    20.5708    10.5277 O         1 MOL       0.0000
    534 O116        -2.9650    20.5863     9.4244 O         1 MOL       0.0000
    535 F25         -6.0640    16.2344     2.2446 F         1 MOL       0.0000
    536 F26          2.8777    11.5595    11.6508 F         1 MOL       0.0000
    537 F27         -4.6631    15.6681     0.6324 F         1 MOL       0.0000
    538 F28         -6.8371    14.7220     4.0916 F         1 MOL       0.0000
    539 F29          2.4199    10.5236     9.7283 F         1 MOL       0.0000
    540 F30         -3.7773    23.3822     8.2233 F         1 MOL       0.0000
    541 S9           1.1227    28.2399     0.7173 S         1 MOL       0.0000
    542 S10         -3.9336    21.1795    10.4842 S         1 MOL       0.0000
    543 N28         -3.1381    16.0930     3.4838 N         1 MOL       0.0000
    544 N29         -4.8576    16.9506     4.5668 N         1 MOL       0.0000
    545 C179        -2.0427    16.0051     2.4873 C         1 MOL       0.0000
    546 C180        -4.0350    17.1118     3.5176 C         1 MOL       0.0000
    547 C181        -3.3523    15.3092     4.5832 C         1 MOL       0.0000
    548 C182        -2.0345    14.6188     1.8554 C         1 MOL       0.0000
    549 C183        -4.4468    15.7879     5.2309 C         1 MOL       0.0000
    550 C184        -6.1113    17.6734     4.7412 C         1 MOL       0.0000
    551 H158        -1.1001    16.2463     2.9908 H         1 MOL       0.0000
    552 H159        -2.2311    16.7879     1.7397 H         1 MOL       0.0000
    553 H160        -4.1769    17.8487     2.7352 H         1 MOL       0.0000
    554 H161        -1.0807    14.4201     1.3577 H         1 MOL       0.0000
    555 H162        -2.7747    14.3710     4.7395 H         1 MOL       0.0000
    556 H163        -6.1235    18.0810     5.7594 H         1 MOL       0.0000
    557 H164        -6.1172    18.4881     4.0007 H         1 MOL       0.0000
    558 H165        -2.2082    13.8332     2.6019 H         1 MOL       0.0000
    559 H166        -4.9365    15.4417     6.1294 H         1 MOL       0.0000
    560 H167        -2.8357    14.5129     1.1228 H         1 MOL       0.0000
    561 H168        -6.9615    16.9983     4.5616 H         1 MOL       0.0000
    562 N30         -6.8413    15.1838     0.3057 N         1 MOL       0.0000
    563 C185        -8.0389    14.2883     3.6389 C         1 MOL       0.0000
    564 C186         2.4947     8.6096    11.2395 C         1 MOL       0.0000
    565 O117       -10.8095    10.7685    12.7515 O         1 MOL       0.0000
    566 O118        -4.7562    13.0568     2.8514 O         1 MOL       0.0000
    567 O119       -10.0507     8.8183    11.3352 O         1 MOL       0.0000
    568 O120       -10.6822    27.8018     0.4181 O         1 MOL       0.0000
    569 F31         -9.0599    14.2933     4.7540 F         1 MOL       0.0000
    570 F32          1.3729     9.2245    11.6359 F         1 MOL       0.0000
    571 F33          0.1529    27.0437     1.4068 F         1 MOL       0.0000
    572 F34         -7.7928    12.9370     3.3639 F         1 MOL       0.0000
    573 F35          4.3745     9.4282     9.7142 F         1 MOL       0.0000
    574 F36         -2.9217    20.2545    11.3622 F         1 MOL       0.0000
    575 S11        -11.0711     9.4726    12.1297 S         1 MOL       0.0000
    576 S12        -11.7466    27.8628     1.3914 S         1 MOL       0.0000
    577 Ti25       -14.0074     9.7768    24.2844 Ti        1 MOL       0.0000
    578 Ti26        -3.1770    12.6580    14.9196 Ti        1 MOL       0.0000
    579 Ti27        -9.9108     5.8406    22.4644 Ti        1 MOL       0.0000
    580 Ti28        -8.3996    15.0027    16.6914 Ti        1 MOL       0.0000
    581 Ti29        -9.3981    16.6810    14.7870 Ti        1 MOL       0.0000
    582 Ti30        -8.0226     5.5862    24.4178 Ti        1 MOL       0.0000
    583 Ti31       -13.0582     8.0409    22.3929 Ti        1 MOL       0.0000
    584 Ti32        -5.1648    12.9605    16.7671 Ti        1 MOL       0.0000
    585 H169       -13.5056    13.6739    24.0649 H         1 MOL       0.0000
    586 H170        -2.3682     8.7519    15.2403 H         1 MOL       0.0000
    587 H171       -17.9673     9.0201    23.9020 H         1 MOL       0.0000
    588 H172         0.2052    14.6623    15.1202 H         1 MOL       0.0000
    589 H173        -7.0469     1.5517    24.0319 H         1 MOL       0.0000
    590 H174       -13.4567    16.0911    15.1091 H         1 MOL       0.0000
    591 H175       -13.5387     7.9782    26.0089 H         1 MOL       0.0000
    592 H176        -5.0525    12.4153    13.2196 H         1 MOL       0.0000
    593 H177        -7.5126     4.9191    18.9067 H         1 MOL       0.0000
    594 H178       -10.1230    16.8397    20.3103 H         1 MOL       0.0000
    595 H179       -17.1309    11.4295    22.0370 H         1 MOL       0.0000
    596 H180        -0.4222    10.5736    17.2256 H         1 MOL       0.0000
    597 H181       -14.8298     9.9821    18.7032 H         1 MOL       0.0000
    598 H182       -12.4982    18.5089    17.1402 H         1 MOL       0.0000
    599 H183        -9.0059    19.7838    15.6425 H         1 MOL       0.0000
    600 H184        -2.5260     6.7331    16.4428 H         1 MOL       0.0000
    601 H185        -6.3069    14.6828    15.3528 H         1 MOL       0.0000
    602 H186       -10.9915     7.6890    23.7580 H         1 MOL       0.0000
    603 H187        -3.7878     7.5211    22.8075 H         1 MOL       0.0000
    604 H188        -5.2689     7.0520    23.5548 H         1 MOL       0.0000
    605 H189        -3.2137    11.9547    21.7085 H         1 MOL       0.0000
    606 H190        -3.7834    12.3133    20.0900 H         1 MOL       0.0000
    607 H191        -4.2766     2.5662    22.6174 H         1 MOL       0.0000
    608 H192        -5.5558     3.6668    23.0748 H         1 MOL       0.0000
    609 C187        -2.5989    11.9167    17.7831 C         1 MOL       0.0000
    610 C188       -14.9680    10.0381    21.4374 C         1 MOL       0.0000
    611 C189        -7.3302     4.8299    21.5397 C         1 MOL       0.0000
    612 C190       -10.3357    16.9732    17.6507 C         1 MOL       0.0000
    613 C191        -1.7029    11.3124    18.7783 C         1 MOL       0.0000
    614 C192       -15.8999    10.6632    20.4603 C         1 MOL       0.0000
    615 C193        -6.3900     4.2155    20.5925 C         1 MOL       0.0000
    616 C194       -11.2255    17.6200    18.6505 C         1 MOL       0.0000
    617 C195        -1.9517    11.3873    20.1847 C         1 MOL       0.0000
    618 C196       -15.6835    10.5432    19.0723 C         1 MOL       0.0000
    619 C197        -5.2606     3.4552    21.0456 C         1 MOL       0.0000
    620 C198       -12.3202    18.3930    18.2056 C         1 MOL       0.0000
    621 C199       -10.9710    17.4492    20.0054 C         1 MOL       0.0000
    622 C200        -6.6378     4.3476    19.2086 C         1 MOL       0.0000
    623 C201        -0.5692    10.6134    18.3026 C         1 MOL       0.0000
    624 C202       -17.0001    11.3556    20.9590 C         1 MOL       0.0000
    625 C203        -2.3872     8.8310    13.0962 C         1 MOL       0.0000
    626 C204        -8.8569    20.6226    13.1212 C         1 MOL       0.0000
    627 C205        -4.5377     7.5281    26.0652 C         1 MOL       0.0000
    628 C206       -17.8960     9.0705    26.0458 C         1 MOL       0.0000
    629 C207        -7.6528    12.6595    18.6560 C         1 MOL       0.0000
    630 C208       -12.4089     5.5651    20.5741 C         1 MOL       0.0000
    631 C209        -7.1580     3.2199    26.1680 C         1 MOL       0.0000
    632 C210        -8.9496    19.1891    13.0837 C         1 MOL       0.0000
    633 C211        -5.8355     6.9113    26.1120 C         1 MOL       0.0000
    634 C212       -16.4937     9.4849    26.0703 C         1 MOL       0.0000
    635 C213        -2.3478     8.1619    14.3259 C         1 MOL       0.0000
    636 C214       -13.4946    14.2623    24.9788 C         1 MOL       0.0000
    637 C215       -15.2474    15.4259    14.1141 C         1 MOL       0.0000
    638 C216       -18.5288     8.8408    24.8173 C         1 MOL       0.0000
    639 C217        -3.8431     7.7964    24.8318 C         1 MOL       0.0000
    640 C218       -13.9582    15.9061    14.1633 C         1 MOL       0.0000
    641 C219        -7.0053     1.0245    24.9809 C         1 MOL       0.0000
    642 C220        -2.3261     6.7608    14.4075 C         1 MOL       0.0000
    643 N31         -2.2710     6.1619    15.6456 N         1 MOL       0.0000
    644 N32         -4.4221     7.6135    23.5928 N         1 MOL       0.0000
    645 N33         -3.0325    12.0336    20.7160 N         1 MOL       0.0000
    646 N34         -4.9296     3.2970    22.3630 N         1 MOL       0.0000
    647 O121        -3.7752    12.3218    18.1489 O         1 MOL       0.0000
    648 O122       -14.1990     9.0873    21.0391 O         1 MOL       0.0000
    649 O123        -6.9488     4.9543    22.7608 O         1 MOL       0.0000
    650 O124       -10.4015    17.4029    16.4512 O         1 MOL       0.0000
    651 O125        -9.5652    16.0160    18.0372 O         1 MOL       0.0000
    652 O126        -8.5007     5.1983    21.1342 O         1 MOL       0.0000
    653 O127        -2.1870    11.9975    16.5714 O         1 MOL       0.0000
    654 O128       -15.0100    10.4744    22.6371 O         1 MOL       0.0000
    655 O129        -4.8596    11.7426    15.5724 O         1 MOL       0.0000
    656 O130       -12.5058     9.6012    23.1374 O         1 MOL       0.0000
    657 O131        -3.9208    14.0299    16.0223 O         1 MOL       0.0000
    658 O132       -14.2580     7.8765    23.6301 O         1 MOL       0.0000
    659 O133        -9.6515     4.6686    23.7248 O         1 MOL       0.0000
    660 O134        -7.8830    16.5640    15.9529 O         1 MOL       0.0000
    661 O135        -8.6975     6.9301    23.2607 O         1 MOL       0.0000
    662 O136        -9.5892    14.8069    15.4355 O         1 MOL       0.0000
    663 O137        -6.4317    12.4797    18.3017 O         1 MOL       0.0000
    664 O138       -13.0666     6.6001    20.9523 O         1 MOL       0.0000
    665 O139        -7.2802     3.8144    25.0269 O         1 MOL       0.0000
    666 O140        -9.0327    18.4876    14.1789 O         1 MOL       0.0000
    667 O141        -6.4781     6.6025    25.0218 O         1 MOL       0.0000
    668 O142       -11.2687    16.6519    14.1188 O         1 MOL       0.0000
    669 O143       -11.2471     5.2706    21.0319 O         1 MOL       0.0000
    670 O144        -8.3947    13.5804    18.1626 O         1 MOL       0.0000
    671 O145        -1.7399    13.6771    14.1650 O         1 MOL       0.0000
    672 O146       -15.8942     9.7167    24.9528 O         1 MOL       0.0000
    673 O147        -2.5355    10.9228    14.1944 O         1 MOL       0.0000
    674 O148       -13.6260    11.4990    25.0341 O         1 MOL       0.0000
    675 O149        -6.6678    14.1341    16.0734 O         1 MOL       0.0000
    676 O150       -11.3697     7.1303    23.0545 O         1 MOL       0.0000
    677 O151        -4.2137    12.9089    13.1406 O         1 MOL       0.0000
    678 O152       -13.4163     8.9450    26.0689 O         1 MOL       0.0000
    679 H193        -7.3987     9.0561    21.6093 H         1 MOL       0.0000
    680 H194       -17.7639    18.1271    19.2031 H         1 MOL       0.0000
    681 H195        -6.7178    17.6510    18.7728 H         1 MOL       0.0000
    682 H196        -6.4176    10.5844    19.8808 H         1 MOL       0.0000
    683 H197       -11.0167    11.3870    21.6189 H         1 MOL       0.0000
    684 H198         0.9539     4.8228    20.1468 H         1 MOL       0.0000
    685 H199        -9.7342     9.4017    22.3633 H         1 MOL       0.0000
    686 H200        -9.9881    12.9796    19.9669 H         1 MOL       0.0000
    687 H201        -5.3729    15.9127    17.6156 H         1 MOL       0.0000
    688 H202        -2.9095    15.8336    17.8924 H         1 MOL       0.0000
    689 C221        -8.1754    11.8322    19.7704 C         1 MOL       0.0000
    690 C222        -9.2780    10.1123    21.6760 C         1 MOL       0.0000
    691 C223        -4.8752    16.6543    18.2404 C         1 MOL       0.0000
    692 C224       -13.0764     4.5699    19.7045 C         1 MOL       0.0000
    693 C225        -9.4453    12.1013    20.3123 C         1 MOL       0.0000
    694 C226        -7.9657     9.9055    21.2316 C         1 MOL       0.0000
    695 C227        -5.6331    17.6529    18.8645 C         1 MOL       0.0000
    696 C228       -18.8413    18.1512    19.0555 C         1 MOL       0.0000
    697 C229        -3.4832    16.6197    18.3807 C         1 MOL       0.0000
    698 C230         1.5237     4.0394    19.6545 C         1 MOL       0.0000
    699 C231        -7.4175    10.7570    20.2726 C         1 MOL       0.0000
    700 C232       -10.0059    11.2279    21.2461 C         1 MOL       0.0000
    701 N35         -5.9247    18.0458    14.2871 N         1 MOL       0.0000
    702 N36         -9.2090     9.9567    25.9868 N         1 MOL       0.0000
    703 C233       -10.7131    11.5211    26.1202 C         1 MOL       0.0000
    704 C234        -9.8836    10.8962    25.2400 C         1 MOL       0.0000
    705 C235        -6.9319    10.0873    24.9609 C         1 MOL       0.0000
    706 C236        -6.3096    18.7311    15.5412 C         1 MOL       0.0000
    707 C237        -4.9676    17.1060    14.1694 C         1 MOL       0.0000
    708 C238        -8.0704     9.1933    25.4486 C         1 MOL       0.0000
    709 H203       -11.2623    12.4439    25.9768 H         1 MOL       0.0000
    710 H204        -9.7082    11.0738    24.1975 H         1 MOL       0.0000
    711 H205        -7.2692    10.7656    24.1695 H         1 MOL       0.0000
    712 H206        -6.3206    19.8010    15.3417 H         1 MOL       0.0000
    713 H207        -6.5190    10.7029    25.7697 H         1 MOL       0.0000
    714 H208        -7.2820    18.3893    15.8622 H         1 MOL       0.0000
    715 H209        -6.1253     9.4720    24.5409 H         1 MOL       0.0000
    716 H210        -8.4390     8.5698    24.6258 H         1 MOL       0.0000
    717 H211        -5.5847    18.5411    16.3401 H         1 MOL       0.0000
    718 H212        -4.5623    16.5302    15.0053 H         1 MOL       0.0000
    719 H213        -3.1076    15.5886    13.1574 H         1 MOL       0.0000
    720 N37         -9.0925    14.7086    25.9054 N         1 MOL       0.0000
    721 C239       -10.5376     8.1901    14.3219 C         1 MOL       0.0000
    722 C240        -1.6660     2.2849    23.0075 C         1 MOL       0.0000
    723 O153         2.8904     7.2761    15.7277 O         1 MOL       0.0000
    724 O154        -1.5935    19.5779    14.1282 O         1 MOL       0.0000
    725 O155        -9.9317    13.5048    23.6227 O         1 MOL       0.0000
    726 O156        -7.6000    13.5203    22.5194 O         1 MOL       0.0000
    727 F37        -10.6990     9.1684    15.3396 F         1 MOL       0.0000
    728 F38         -1.7573     4.4935    24.7458 F         1 MOL       0.0000
    729 F39         -9.2981     8.6021    13.7274 F         1 MOL       0.0000
    730 F40        -11.4721     7.6560    17.1866 F         1 MOL       0.0000
    731 F41         -2.2151     3.4576    22.8233 F         1 MOL       0.0000
    732 F42         -8.4123    16.3162    21.3183 F         1 MOL       0.0000
    733 S13         -3.5123    21.1739    13.8123 S         1 MOL       0.0000
    734 S14         -8.5686    14.1135    23.5792 S         1 MOL       0.0000
    735 N38         -7.7731     9.0270    16.5788 N         1 MOL       0.0000
    736 N39         -9.4926     9.8846    17.6618 N         1 MOL       0.0000
    737 C241        -6.6777     8.9391    15.5823 C         1 MOL       0.0000
    738 C242        -8.6700    10.0458    16.6126 C         1 MOL       0.0000
    739 C243        -7.9873     8.2432    17.6782 C         1 MOL       0.0000
    740 C244        -6.6695     7.5528    14.9504 C         1 MOL       0.0000
    741 C245        -9.0818     8.7219    18.3259 C         1 MOL       0.0000
    742 C246       -10.7463    10.6074    17.8362 C         1 MOL       0.0000
    743 H214        -5.7351     9.1803    16.0858 H         1 MOL       0.0000
    744 H215        -6.8661     9.7219    14.8347 H         1 MOL       0.0000
    745 H216        -8.8119    10.7827    15.8302 H         1 MOL       0.0000
    746 H217        -5.7157     7.3541    14.4527 H         1 MOL       0.0000
    747 H218        -7.4097     7.3050    17.8345 H         1 MOL       0.0000
    748 H219       -10.7585    11.0150    18.8544 H         1 MOL       0.0000
    749 H220       -10.7522    11.4221    17.0957 H         1 MOL       0.0000
    750 H221        -6.8432     6.7672    15.6969 H         1 MOL       0.0000
    751 H222        -9.5715     8.3757    19.2244 H         1 MOL       0.0000
    752 H223        -7.4707     7.4469    14.2178 H         1 MOL       0.0000
    753 H224       -11.5965     9.9323    17.6566 H         1 MOL       0.0000
    754 N40        -11.4763     8.1178    13.4007 N         1 MOL       0.0000
    755 C247       -12.6739     7.2223    16.7339 C         1 MOL       0.0000
    756 C248        -2.1403     1.5436    24.3345 C         1 MOL       0.0000
    757 O157       -15.4445     3.7025    25.8465 O         1 MOL       0.0000
    758 O158        -9.3912     5.9908    15.9464 O         1 MOL       0.0000
    759 O159       -14.6857     1.7523    24.4302 O         1 MOL       0.0000
    760 O160       -15.3172    20.7358    13.5131 O         1 MOL       0.0000
    761 F43        -13.6949     7.2273    17.8490 F         1 MOL       0.0000
    762 F44         -3.2621     2.1585    24.7309 F         1 MOL       0.0000
    763 F45         -4.4821    19.9777    14.5018 F         1 MOL       0.0000
    764 F46        -12.4278     5.8710    16.4589 F         1 MOL       0.0000
    765 F47         -0.2605     2.3622    22.8092 F         1 MOL       0.0000
    766 F48         -7.5567    13.1885    24.4572 F         1 MOL       0.0000
    767 S15        -15.7061     2.4066    25.2247 S         1 MOL       0.0000
    768 S16        -16.3816    20.7968    14.4864 S         1 MOL       0.0000
    769 Ti33        13.1446     1.6728    11.3364 Ti        1 MOL       0.0000
    770 Ti34        23.9750     4.5540     1.9716 Ti        1 MOL       0.0000
    771 Ti35        17.2413    -2.2634     9.5164 Ti        1 MOL       0.0000
    772 Ti36        18.7524     6.8987     3.7434 Ti        1 MOL       0.0000
    773 Ti37        17.7539     8.5770     1.8390 Ti        1 MOL       0.0000
    774 Ti38        19.1295    -2.5178    11.4698 Ti        1 MOL       0.0000
    775 Ti39        14.0938    -0.0631     9.4449 Ti        1 MOL       0.0000
    776 Ti40        21.9872     4.8565     3.8191 Ti        1 MOL       0.0000
    777 H225        13.6464     5.5698    11.1169 H         1 MOL       0.0000
    778 H226        24.7838     0.6479     2.2923 H         1 MOL       0.0000
    779 H227         9.1847     0.9161    10.9540 H         1 MOL       0.0000
    780 H228        27.3572     6.5583     2.1722 H         1 MOL       0.0000
    781 H229        20.1051    -6.5523    11.0839 H         1 MOL       0.0000
    782 H230        13.6953     7.9871     2.1610 H         1 MOL       0.0000
    783 H231        13.6133    -0.1258    13.0609 H         1 MOL       0.0000
    784 H232        22.0995     4.3113     0.2717 H         1 MOL       0.0000
    785 H233        19.6394    -3.1849     5.9587 H         1 MOL       0.0000
    786 H234        17.0290     8.7357     7.3624 H         1 MOL       0.0000
    787 H235        10.0211     3.3255     9.0890 H         1 MOL       0.0000
    788 H236        26.7298     2.4697     4.2776 H         1 MOL       0.0000
    789 H237        12.3222     1.8781     5.7552 H         1 MOL       0.0000
    790 H238        14.6538    10.4049     4.1922 H         1 MOL       0.0000
    791 H239        18.1461    11.6798     2.6945 H         1 MOL       0.0000
    792 H240        24.6260    -1.3709     3.4948 H         1 MOL       0.0000
    793 H241        20.8451     6.5788     2.4048 H         1 MOL       0.0000
    794 H242        16.1605    -0.4150    10.8100 H         1 MOL       0.0000
    795 H243        23.3642    -0.5829     9.8595 H         1 MOL       0.0000
    796 H244        21.8831    -1.0520    10.6068 H         1 MOL       0.0000
    797 H245        23.9383     3.8507     8.7606 H         1 MOL       0.0000
    798 H246        23.3686     4.2093     7.1420 H         1 MOL       0.0000
    799 H247        22.8754    -5.5378     9.6694 H         1 MOL       0.0000
    800 H248        21.5962    -4.4372    10.1268 H         1 MOL       0.0000
    801 C249        24.5531     3.8127     4.8351 C         1 MOL       0.0000
    802 C250        12.1840     1.9341     8.4894 C         1 MOL       0.0000
    803 C251        19.8218    -3.2741     8.5917 C         1 MOL       0.0000
    804 C252        16.8163     8.8692     4.7027 C         1 MOL       0.0000
    805 C253        25.4491     3.2084     5.8303 C         1 MOL       0.0000
    806 C254        11.2521     2.5592     7.5123 C         1 MOL       0.0000
    807 C255        20.7620    -3.8885     7.6445 C         1 MOL       0.0000
    808 C256        15.9265     9.5160     5.7025 C         1 MOL       0.0000
    809 C257        25.2003     3.2833     7.2367 C         1 MOL       0.0000
    810 C258        11.4685     2.4392     6.1243 C         1 MOL       0.0000
    811 C259        21.8914    -4.6488     8.0976 C         1 MOL       0.0000
    812 C260        14.8318    10.2890     5.2576 C         1 MOL       0.0000
    813 C261        16.1810     9.3453     7.0574 C         1 MOL       0.0000
    814 C262        20.5142    -3.7563     6.2606 C         1 MOL       0.0000
    815 C263        26.5828     2.5094     5.3546 C         1 MOL       0.0000
    816 C264        10.1519     3.2516     8.0110 C         1 MOL       0.0000
    817 C265        24.7648     0.7270     0.1482 C         1 MOL       0.0000
    818 C266        18.2951    12.5186     0.1732 C         1 MOL       0.0000
    819 C267        22.6143    -0.5759    13.1172 C         1 MOL       0.0000
    820 C268         9.2560     0.9665    13.0978 C         1 MOL       0.0000
    821 C269        19.4992     4.5555     5.7080 C         1 MOL       0.0000
    822 C270        14.7431    -2.5389     7.6261 C         1 MOL       0.0000
    823 C271        19.9940    -4.8842    13.2200 C         1 MOL       0.0000
    824 C272        18.2024    11.0851     0.1357 C         1 MOL       0.0000
    825 C273        21.3164    -1.1927    13.1640 C         1 MOL       0.0000
    826 C274        10.6583     1.3809    13.1223 C         1 MOL       0.0000
    827 C275        24.8042     0.0579     1.3779 C         1 MOL       0.0000
    828 C276        13.6574     6.1583    12.0308 C         1 MOL       0.0000
    829 C277        11.9046     7.3219     1.1661 C         1 MOL       0.0000
    830 C278         8.6232     0.7368    11.8693 C         1 MOL       0.0000
    831 C279        23.3089    -0.3076    11.8838 C         1 MOL       0.0000
    832 C280        13.1938     7.8021     1.2153 C         1 MOL       0.0000
    833 C281        20.1467    -7.0795    12.0329 C         1 MOL       0.0000
    834 C282        24.8259    -1.3432     1.4595 C         1 MOL       0.0000
    835 N41         24.8809    -1.9421     2.6976 N         1 MOL       0.0000
    836 N42         22.7299    -0.4905    10.6448 N         1 MOL       0.0000
    837 N43         24.1195     3.9296     7.7680 N         1 MOL       0.0000
    838 N44         22.2224    -4.8070     9.4150 N         1 MOL       0.0000
    839 O161        23.3768     4.2178     5.2009 O         1 MOL       0.0000
    840 O162        12.9530     0.9833     8.0911 O         1 MOL       0.0000
    841 O163        20.2032    -3.1497     9.8128 O         1 MOL       0.0000
    842 O164        16.7505     9.2989     3.5031 O         1 MOL       0.0000
    843 O165        17.5868     7.9120     5.0892 O         1 MOL       0.0000
    844 O166        18.6513    -2.9057     8.1862 O         1 MOL       0.0000
    845 O167        24.9650     3.8935     3.6234 O         1 MOL       0.0000
    846 O168        12.1420     2.3704     9.6891 O         1 MOL       0.0000
    847 O169        22.2924     3.6386     2.6244 O         1 MOL       0.0000
    848 O170        14.6462     1.4972    10.1894 O         1 MOL       0.0000
    849 O171        23.2312     5.9259     3.0743 O         1 MOL       0.0000
    850 O172        12.8940    -0.2275    10.6821 O         1 MOL       0.0000
    851 O173        17.5006    -3.4354    10.7768 O         1 MOL       0.0000
    852 O174        19.2690     8.4600     3.0049 O         1 MOL       0.0000
    853 O175        18.4545    -1.1739    10.3127 O         1 MOL       0.0000
    854 O176        17.5628     6.7029     2.4875 O         1 MOL       0.0000
    855 O177        20.7203     4.3756     5.3537 O         1 MOL       0.0000
    856 O178        14.0854    -1.5039     8.0043 O         1 MOL       0.0000
    857 O179        19.8718    -4.2896    12.0789 O         1 MOL       0.0000
    858 O180        18.1193    10.3836     1.2309 O         1 MOL       0.0000
    859 O181        20.6739    -1.5015    12.0738 O         1 MOL       0.0000
    860 O182        15.8833     8.5479     1.1708 O         1 MOL       0.0000
    861 O183        15.9049    -2.8334     8.0839 O         1 MOL       0.0000
    862 O184        18.7573     5.4764     5.2146 O         1 MOL       0.0000
    863 O185        25.4121     5.5731     1.2170 O         1 MOL       0.0000
    864 O186        11.2578     1.6127    12.0048 O         1 MOL       0.0000
    865 O187        24.6166     2.8188     1.2464 O         1 MOL       0.0000
    866 O188        13.5260     3.3950    12.0861 O         1 MOL       0.0000
    867 O189        20.4842     6.0301     3.1254 O         1 MOL       0.0000
    868 O190        15.7823    -0.9737    10.1065 O         1 MOL       0.0000
    869 O191        22.9383     4.8049     0.1926 O         1 MOL       0.0000
    870 O192        13.7357     0.8410    13.1209 O         1 MOL       0.0000
    871 H249        19.7533     0.9521     8.6613 H         1 MOL       0.0000
    872 H250         9.3881    10.0231     6.2551 H         1 MOL       0.0000
    873 H251        20.4342     9.5470     5.8248 H         1 MOL       0.0000
    874 H252        20.7344     2.4804     6.9328 H         1 MOL       0.0000
    875 H253        16.1353     3.2830     8.6709 H         1 MOL       0.0000
    876 H254        28.1059    -3.2812     7.1988 H         1 MOL       0.0000
    877 H255        17.4178     1.2977     9.4153 H         1 MOL       0.0000
    878 H256        17.1639     4.8756     7.0189 H         1 MOL       0.0000
    879 H257        21.7791     7.8087     4.6676 H         1 MOL       0.0000
    880 H258        24.2425     7.7296     4.9444 H         1 MOL       0.0000
    881 C283        18.9766     3.7282     6.8224 C         1 MOL       0.0000
    882 C284        17.8740     2.0083     8.7280 C         1 MOL       0.0000
    883 C285        22.2768     8.5503     5.2924 C         1 MOL       0.0000
    884 C286        14.0756    -3.5341     6.7565 C         1 MOL       0.0000
    885 C287        17.7067     3.9973     7.3643 C         1 MOL       0.0000
    886 C288        19.1863     1.8015     8.2836 C         1 MOL       0.0000
    887 C289        21.5189     9.5489     5.9165 C         1 MOL       0.0000
    888 C290         8.3107    10.0472     6.1075 C         1 MOL       0.0000
    889 C291        23.6688     8.5157     5.4327 C         1 MOL       0.0000
    890 C292        28.6757    -4.0646     6.7065 C         1 MOL       0.0000
    891 C293        19.7345     2.6530     7.3246 C         1 MOL       0.0000
    892 C294        17.1461     3.1239     8.2981 C         1 MOL       0.0000
    893 N45         21.2273     9.9418     1.3391 N         1 MOL       0.0000
    894 N46         17.9430     1.8527    13.0388 N         1 MOL       0.0000
    895 C295        16.4389     3.4171    13.1722 C         1 MOL       0.0000
    896 C296        17.2684     2.7922    12.2920 C         1 MOL       0.0000
    897 C297        20.2201     1.9833    12.0129 C         1 MOL       0.0000
    898 C298        20.8424    10.6271     2.5932 C         1 MOL       0.0000
    899 C299        22.1844     9.0020     1.2214 C         1 MOL       0.0000
    900 C300        19.0816     1.0893    12.5006 C         1 MOL       0.0000
    901 H259        15.8897     4.3399    13.0288 H         1 MOL       0.0000
    902 H260        17.4438     2.9698    11.2495 H         1 MOL       0.0000
    903 H261        19.8828     2.6616    11.2215 H         1 MOL       0.0000
    904 H262        20.8314    11.6970     2.3937 H         1 MOL       0.0000
    905 H263        20.6330     2.5989    12.8217 H         1 MOL       0.0000
    906 H264        19.8700    10.2853     2.9142 H         1 MOL       0.0000
    907 H265        21.0267     1.3680    11.5929 H         1 MOL       0.0000
    908 H266        18.7130     0.4658    11.6778 H         1 MOL       0.0000
    909 H267        21.5673    10.4371     3.3921 H         1 MOL       0.0000
    910 H268        22.5897     8.4262     2.0573 H         1 MOL       0.0000
    911 H269        24.0444     7.4846     0.2094 H         1 MOL       0.0000
    912 N47         18.0595     6.6046    12.9574 N         1 MOL       0.0000
    913 C301        16.6144     0.0861     1.3739 C         1 MOL       0.0000
    914 C302        25.4860    -5.8191    10.0595 C         1 MOL       0.0000
    915 O193        30.0424    -0.8279     2.7797 O         1 MOL       0.0000
    916 O194        25.5585    11.4739     1.1802 O         1 MOL       0.0000
    917 O195        17.2203     5.4008    10.6747 O         1 MOL       0.0000
    918 O196        19.5520     5.4163     9.5714 O         1 MOL       0.0000
    919 F49         16.4530     1.0644     2.3916 F         1 MOL       0.0000
    920 F50         25.3947    -3.6105    11.7978 F         1 MOL       0.0000
    921 F51         17.8539     0.4981     0.7794 F         1 MOL       0.0000
    922 F52         15.6799    -0.4480     4.2386 F         1 MOL       0.0000
    923 F53         24.9369    -4.6464     9.8753 F         1 MOL       0.0000
    924 F54         18.7397     8.2122     8.3703 F         1 MOL       0.0000
    925 S17         23.6397    13.0699     0.8643 S         1 MOL       0.0000
    926 S18         18.5834     6.0095    10.6312 S         1 MOL       0.0000
    927 N48         19.3789     0.9230     3.6308 N         1 MOL       0.0000
    928 N49         17.6594     1.7806     4.7138 N         1 MOL       0.0000
    929 C303        20.4743     0.8351     2.6343 C         1 MOL       0.0000
    930 C304        18.4820     1.9418     3.6646 C         1 MOL       0.0000
    931 C305        19.1647     0.1392     4.7302 C         1 MOL       0.0000
    932 C306        20.4825    -0.5512     2.0024 C         1 MOL       0.0000
    933 C307        18.0702     0.6179     5.3779 C         1 MOL       0.0000
    934 C308        16.4057     2.5034     4.8882 C         1 MOL       0.0000
    935 H270        21.4169     1.0763     3.1378 H         1 MOL       0.0000
    936 H271        20.2859     1.6179     1.8867 H         1 MOL       0.0000
    937 H272        18.3401     2.6787     2.8822 H         1 MOL       0.0000
    938 H273        21.4363    -0.7499     1.5047 H         1 MOL       0.0000
    939 H274        19.7423    -0.7990     4.8865 H         1 MOL       0.0000
    940 H275        16.3935     2.9110     5.9064 H         1 MOL       0.0000
    941 H276        16.3998     3.3181     4.1477 H         1 MOL       0.0000
    942 H277        20.3088    -1.3368     2.7489 H         1 MOL       0.0000
    943 H278        17.5805     0.2717     6.2764 H         1 MOL       0.0000
    944 H279        19.6813    -0.6571     1.2698 H         1 MOL       0.0000
    945 H280        15.5555     1.8283     4.7086 H         1 MOL       0.0000
    946 N50         15.6757     0.0138     0.4527 N         1 MOL       0.0000
    947 C309        14.4781    -0.8817     3.7859 C         1 MOL       0.0000
    948 C310        25.0117    -6.5604    11.3865 C         1 MOL       0.0000
    949 O197        11.7075    -4.4015    12.8985 O         1 MOL       0.0000
    950 O198        17.7608    -2.1132     2.9984 O         1 MOL       0.0000
    951 O199        12.4663    -6.3517    11.4822 O         1 MOL       0.0000
    952 O200        11.8348    12.6318     0.5651 O         1 MOL       0.0000
    953 F55         13.4571    -0.8767     4.9010 F         1 MOL       0.0000
    954 F56         23.8899    -5.9455    11.7829 F         1 MOL       0.0000
    955 F57         22.6699    11.8737     1.5538 F         1 MOL       0.0000
    956 F58         14.7242    -2.2330     3.5109 F         1 MOL       0.0000
    957 F59         26.8915    -5.7418     9.8612 F         1 MOL       0.0000
    958 F60         19.5953     5.0845    11.5092 F         1 MOL       0.0000
    959 S19         11.4459    -5.6974    12.2767 S         1 MOL       0.0000
    960 S20         10.7704    12.6928     1.5384 S         1 MOL       0.0000
    961 Ti41         8.5096    -5.3932    24.4314 Ti        1 MOL       0.0000
    962 Ti42        19.3400    -2.5120    15.0666 Ti        1 MOL       0.0000
    963 Ti43        12.6063    -9.3294    22.6114 Ti        1 MOL       0.0000
    964 Ti44        14.1174    -0.1673    16.8384 Ti        1 MOL       0.0000
    965 Ti45        13.1189     1.5110    14.9340 Ti        1 MOL       0.0000
    966 Ti46        14.4945    -9.5838    24.5648 Ti        1 MOL       0.0000
    967 Ti47         9.4588    -7.1291    22.5399 Ti        1 MOL       0.0000
    968 Ti48        17.3522    -2.2095    16.9140 Ti        1 MOL       0.0000
    969 H281         9.0114    -1.4961    24.2119 H         1 MOL       0.0000
    970 H282        20.1488    -6.4181    15.3873 H         1 MOL       0.0000
    971 H283         4.5497    -6.1499    24.0490 H         1 MOL       0.0000
    972 H284        22.7222    -0.5077    15.2672 H         1 MOL       0.0000
    973 H285        15.4701   -13.6183    24.1789 H         1 MOL       0.0000
    974 H286         9.0603     0.9211    15.2561 H         1 MOL       0.0000
    975 H287         8.9783    -7.1918    26.1559 H         1 MOL       0.0000
    976 H288        17.4645    -2.7547    13.3666 H         1 MOL       0.0000
    977 H289        15.0044   -10.2509    19.0537 H         1 MOL       0.0000
    978 H290        12.3940     1.6697    20.4573 H         1 MOL       0.0000
    979 H291         5.3861    -3.7405    22.1840 H         1 MOL       0.0000
    980 H292        22.0948    -4.5963    17.3726 H         1 MOL       0.0000
    981 H293         7.6872    -5.1879    18.8502 H         1 MOL       0.0000
    982 H294        10.0188     3.3389    17.2872 H         1 MOL       0.0000
    983 H295        13.5111     4.6138    15.7895 H         1 MOL       0.0000
    984 H296        19.9910    -8.4369    16.5898 H         1 MOL       0.0000
    985 H297        16.2101    -0.4872    15.4998 H         1 MOL       0.0000
    986 H298        11.5255    -7.4810    23.9050 H         1 MOL       0.0000
    987 H299        18.7292    -7.6489    22.9545 H         1 MOL       0.0000
    988 H300        17.2481    -8.1180    23.7018 H         1 MOL       0.0000
    989 H301        19.3033    -3.2153    21.8555 H         1 MOL       0.0000
    990 H302        18.7336    -2.8567    20.2370 H         1 MOL       0.0000
    991 H303        18.2404   -12.6038    22.7644 H         1 MOL       0.0000
    992 H304        16.9612   -11.5032    23.2218 H         1 MOL       0.0000
    993 C311        19.9181    -3.2533    17.9301 C         1 MOL       0.0000
    994 C312         7.5490    -5.1319    21.5844 C         1 MOL       0.0000
    995 C313        15.1867   -10.3401    21.6867 C         1 MOL       0.0000
    996 C314        12.1813     1.8032    17.7978 C         1 MOL       0.0000
    997 C315        20.8141    -3.8576    18.9253 C         1 MOL       0.0000
    998 C316         6.6171    -4.5068    20.6073 C         1 MOL       0.0000
    999 C317        16.1270   -10.9545    20.7395 C         1 MOL       0.0000
   1000 C318        11.2915     2.4500    18.7975 C         1 MOL       0.0000
   1001 C319        20.5653    -3.7827    20.3317 C         1 MOL       0.0000
   1002 C320         6.8335    -4.6268    19.2193 C         1 MOL       0.0000
   1003 C321        17.2564   -11.7148    21.1926 C         1 MOL       0.0000
   1004 C322        10.1968     3.2230    18.3526 C         1 MOL       0.0000
   1005 C323        11.5460     2.2792    20.1524 C         1 MOL       0.0000
   1006 C324        15.8792   -10.8223    19.3556 C         1 MOL       0.0000
   1007 C325        21.9478    -4.5566    18.4496 C         1 MOL       0.0000
   1008 C326         5.5170    -3.8144    21.1060 C         1 MOL       0.0000
   1009 C327        20.1298    -6.3390    13.2432 C         1 MOL       0.0000
   1010 C328        13.6601     5.4526    13.2682 C         1 MOL       0.0000
   1011 C329        17.9793    -7.6419    26.2122 C         1 MOL       0.0000
   1012 C330         4.6210    -6.0995    26.1928 C         1 MOL       0.0000
   1013 C331        14.8642    -2.5105    18.8030 C         1 MOL       0.0000
   1014 C332        10.1081    -9.6049    20.7211 C         1 MOL       0.0000
   1015 C333        15.3590   -11.9502    26.3150 C         1 MOL       0.0000
   1016 C334        13.5674     4.0191    13.2307 C         1 MOL       0.0000
   1017 C335        16.6814    -8.2587    26.2590 C         1 MOL       0.0000
   1018 C336         6.0233    -5.6851    26.2173 C         1 MOL       0.0000
   1019 C337        20.1692    -7.0081    14.4729 C         1 MOL       0.0000
   1020 C338         9.0224    -0.9077    25.1258 C         1 MOL       0.0000
   1021 C339         7.2696     0.2559    14.2611 C         1 MOL       0.0000
   1022 C340         3.9882    -6.3292    24.9643 C         1 MOL       0.0000
   1023 C341        18.6739    -7.3736    24.9788 C         1 MOL       0.0000
   1024 C342         8.5588     0.7361    14.3103 C         1 MOL       0.0000
   1025 C343        15.5117   -14.1455    25.1279 C         1 MOL       0.0000
   1026 C344        20.1909    -8.4092    14.5545 C         1 MOL       0.0000
   1027 N51         20.2459    -9.0081    15.7926 N         1 MOL       0.0000
   1028 N52         18.0949    -7.5564    23.7398 N         1 MOL       0.0000
   1029 N53         19.4844    -3.1364    20.8630 N         1 MOL       0.0000
   1030 N54         17.5874   -11.8730    22.5100 N         1 MOL       0.0000
   1031 O201        18.7418    -2.8482    18.2959 O         1 MOL       0.0000
   1032 O202         8.3180    -6.0827    21.1861 O         1 MOL       0.0000
   1033 O203        15.5682   -10.2157    22.9078 O         1 MOL       0.0000
   1034 O204        12.1155     2.2329    16.5982 O         1 MOL       0.0000
   1035 O205        12.9518     0.8460    18.1842 O         1 MOL       0.0000
   1036 O206        14.0163    -9.9717    21.2812 O         1 MOL       0.0000
   1037 O207        20.3300    -3.1725    16.7184 O         1 MOL       0.0000
   1038 O208         7.5070    -4.6956    22.7841 O         1 MOL       0.0000
   1039 O209        17.6574    -3.4274    15.7194 O         1 MOL       0.0000
   1040 O210        10.0112    -5.5688    23.2844 O         1 MOL       0.0000
   1041 O211        18.5962    -1.1401    16.1693 O         1 MOL       0.0000
   1042 O212         8.2590    -7.2935    23.7771 O         1 MOL       0.0000
   1043 O213        12.8655   -10.5014    23.8718 O         1 MOL       0.0000
   1044 O214        14.6340     1.3940    16.0999 O         1 MOL       0.0000
   1045 O215        13.8195    -8.2399    23.4077 O         1 MOL       0.0000
   1046 O216        12.9278    -0.3631    15.5825 O         1 MOL       0.0000
   1047 O217        16.0853    -2.6904    18.4487 O         1 MOL       0.0000
   1048 O218         9.4504    -8.5699    21.0993 O         1 MOL       0.0000
   1049 O219        15.2368   -11.3556    25.1739 O         1 MOL       0.0000
   1050 O220        13.4843     3.3176    14.3259 O         1 MOL       0.0000
   1051 O221        16.0389    -8.5675    25.1688 O         1 MOL       0.0000
   1052 O222        11.2483     1.4819    14.2658 O         1 MOL       0.0000
   1053 O223        11.2699    -9.8994    21.1789 O         1 MOL       0.0000
   1054 O224        14.1223    -1.5896    18.3096 O         1 MOL       0.0000
   1055 O225        20.7771    -1.4929    14.3120 O         1 MOL       0.0000
   1056 O226         6.6228    -5.4533    25.0998 O         1 MOL       0.0000
   1057 O227        19.9816    -4.2472    14.3414 O         1 MOL       0.0000
   1058 O228         8.8910    -3.6709    25.1811 O         1 MOL       0.0000
   1059 O229        15.8492    -1.0359    16.2204 O         1 MOL       0.0000
   1060 O230        11.1473    -8.0397    23.2015 O         1 MOL       0.0000
   1061 O231        18.3033    -2.2611    13.2876 O         1 MOL       0.0000
   1062 O232         9.1007    -6.2250    26.2159 O         1 MOL       0.0000
   1063 H305        15.1183    -6.1139    21.7563 H         1 MOL       0.0000
   1064 H306         4.7531     2.9571    19.3501 H         1 MOL       0.0000
   1065 H307        15.7992     2.4810    18.9198 H         1 MOL       0.0000
   1066 H308        16.0994    -4.5856    20.0278 H         1 MOL       0.0000
   1067 H309        11.5003    -3.7830    21.7659 H         1 MOL       0.0000
   1068 H310        23.4709   -10.3472    20.2938 H         1 MOL       0.0000
   1069 H311        12.7828    -5.7683    22.5103 H         1 MOL       0.0000
   1070 H312        12.5289    -2.1904    20.1139 H         1 MOL       0.0000
   1071 H313        17.1441     0.7427    17.7626 H         1 MOL       0.0000
   1072 H314        19.6075     0.6636    18.0394 H         1 MOL       0.0000
   1073 C345        14.3416    -3.3378    19.9174 C         1 MOL       0.0000
   1074 C346        13.2390    -5.0577    21.8230 C         1 MOL       0.0000
   1075 C347        17.6418     1.4843    18.3874 C         1 MOL       0.0000
   1076 C348         9.4406   -10.6001    19.8515 C         1 MOL       0.0000
   1077 C349        13.0717    -3.0687    20.4593 C         1 MOL       0.0000
   1078 C350        14.5513    -5.2645    21.3786 C         1 MOL       0.0000
   1079 C351        16.8839     2.4829    19.0115 C         1 MOL       0.0000
   1080 C352         3.6757     2.9812    19.2025 C         1 MOL       0.0000
   1081 C353        19.0338     1.4497    18.5277 C         1 MOL       0.0000
   1082 C354        24.0407   -11.1306    19.8015 C         1 MOL       0.0000
   1083 C355        15.0995    -4.4130    20.4196 C         1 MOL       0.0000
   1084 C356        12.5111    -3.9421    21.3931 C         1 MOL       0.0000
   1085 N55         16.5923     2.8758    14.4341 N         1 MOL       0.0000
   1086 N56         13.3080    -5.2133    26.1338 N         1 MOL       0.0000
   1087 C357        11.8039    -3.6489    26.2672 C         1 MOL       0.0000
   1088 C358        12.6334    -4.2738    25.3870 C         1 MOL       0.0000
   1089 C359        15.5851    -5.0827    25.1079 C         1 MOL       0.0000
   1090 C360        16.2074     3.5611    15.6882 C         1 MOL       0.0000
   1091 C361        17.5494     1.9360    14.3164 C         1 MOL       0.0000
   1092 C362        14.4466    -5.9767    25.5956 C         1 MOL       0.0000
   1093 H315        11.2547    -2.7261    26.1238 H         1 MOL       0.0000
   1094 H316        12.8088    -4.0962    24.3445 H         1 MOL       0.0000
   1095 H317        15.2478    -4.4044    24.3165 H         1 MOL       0.0000
   1096 H318        16.1964     4.6310    15.4887 H         1 MOL       0.0000
   1097 H319        15.9980    -4.4671    25.9167 H         1 MOL       0.0000
   1098 H320        15.2350     3.2193    16.0092 H         1 MOL       0.0000
   1099 H321        16.3917    -5.6980    24.6879 H         1 MOL       0.0000
   1100 H322        14.0780    -6.6002    24.7728 H         1 MOL       0.0000
   1101 H323        16.9323     3.3711    16.4871 H         1 MOL       0.0000
   1102 H324        17.9547     1.3602    15.1523 H         1 MOL       0.0000
   1103 H325        19.4094     0.4186    13.3044 H         1 MOL       0.0000
   1104 N57         13.4245    -0.4614    26.0524 N         1 MOL       0.0000
   1105 C363        11.9794    -6.9799    14.4689 C         1 MOL       0.0000
   1106 C364        20.8510   -12.8851    23.1545 C         1 MOL       0.0000
   1107 O233        25.4074    -7.8939    15.8747 O         1 MOL       0.0000
   1108 O234        20.9235     4.4079    14.2752 O         1 MOL       0.0000
   1109 O235        12.5853    -1.6652    23.7697 O         1 MOL       0.0000
   1110 O236        14.9170    -1.6497    22.6664 O         1 MOL       0.0000
   1111 F61         11.8180    -6.0016    15.4866 F         1 MOL       0.0000
   1112 F62         20.7597   -10.6765    24.8928 F         1 MOL       0.0000
   1113 F63         13.2189    -6.5679    13.8744 F         1 MOL       0.0000
   1114 F64         11.0449    -7.5140    17.3336 F         1 MOL       0.0000
   1115 F65         20.3019   -11.7124    22.9703 F         1 MOL       0.0000
   1116 F66         14.1047     1.1462    21.4653 F         1 MOL       0.0000
   1117 S21         19.0047     6.0039    13.9593 S         1 MOL       0.0000
   1118 S22         13.9484    -1.0565    23.7262 S         1 MOL       0.0000
   1119 N58         14.7439    -6.1430    16.7258 N         1 MOL       0.0000
   1120 N59         13.0244    -5.2854    17.8088 N         1 MOL       0.0000
   1121 C365        15.8393    -6.2309    15.7293 C         1 MOL       0.0000
   1122 C366        13.8470    -5.1242    16.7596 C         1 MOL       0.0000
   1123 C367        14.5297    -6.9268    17.8252 C         1 MOL       0.0000
   1124 C368        15.8475    -7.6172    15.0974 C         1 MOL       0.0000
   1125 C369        13.4352    -6.4481    18.4729 C         1 MOL       0.0000
   1126 C370        11.7707    -4.5626    17.9832 C         1 MOL       0.0000
   1127 H326        16.7819    -5.9897    16.2328 H         1 MOL       0.0000
   1128 H327        15.6509    -5.4481    14.9817 H         1 MOL       0.0000
   1129 H328        13.7051    -4.3873    15.9772 H         1 MOL       0.0000
   1130 H329        16.8013    -7.8159    14.5997 H         1 MOL       0.0000
   1131 H330        15.1073    -7.8650    17.9815 H         1 MOL       0.0000
   1132 H331        11.7585    -4.1550    19.0014 H         1 MOL       0.0000
   1133 H332        11.7648    -3.7479    17.2427 H         1 MOL       0.0000
   1134 H333        15.6738    -8.4028    15.8439 H         1 MOL       0.0000
   1135 H334        12.9455    -6.7943    19.3714 H         1 MOL       0.0000
   1136 H335        15.0463    -7.7231    14.3648 H         1 MOL       0.0000
   1137 H336        10.9205    -5.2377    17.8036 H         1 MOL       0.0000
   1138 N60         11.0407    -7.0522    13.5477 N         1 MOL       0.0000
   1139 C371         9.8431    -7.9477    16.8809 C         1 MOL       0.0000
   1140 C372        20.3767   -13.6264    24.4815 C         1 MOL       0.0000
   1141 O237         7.0725   -11.4675    25.9935 O         1 MOL       0.0000
   1142 O238        13.1258    -9.1792    16.0934 O         1 MOL       0.0000
   1143 O239         7.8313   -13.4177    24.5772 O         1 MOL       0.0000
   1144 O240         7.1998     5.5658    13.6601 O         1 MOL       0.0000
   1145 F67          8.8221    -7.9427    17.9960 F         1 MOL       0.0000
   1146 F68         19.2549   -13.0115    24.8779 F         1 MOL       0.0000
   1147 F69         18.0349     4.8077    14.6488 F         1 MOL       0.0000
   1148 F70         10.0892    -9.2990    16.6059 F         1 MOL       0.0000
   1149 F71         22.2565   -12.8078    22.9562 F         1 MOL       0.0000
   1150 F72         14.9603    -1.9815    24.6042 F         1 MOL       0.0000
   1151 S23          6.8109   -12.7634    25.3717 S         1 MOL       0.0000
   1152 S24          6.1354     5.6268    14.6334 S         1 MOL       0.0000
   1153 Ti49         6.6276    16.2858    11.2794 Ti        1 MOL       0.0000
   1154 Ti50        17.4580    19.1670     1.9146 Ti        1 MOL       0.0000
   1155 Ti51        10.7242    12.3496     9.4594 Ti        1 MOL       0.0000
   1156 Ti52        12.2354    21.5117     3.6864 Ti        1 MOL       0.0000
   1157 Ti53        11.2369    23.1900     1.7820 Ti        1 MOL       0.0000
   1158 Ti54        12.6125    12.0952    11.4128 Ti        1 MOL       0.0000
   1159 Ti55         7.5768    14.5499     9.3879 Ti        1 MOL       0.0000
   1160 Ti56        15.4702    19.4695     3.7621 Ti        1 MOL       0.0000
   1161 H337         7.1294    20.1828    11.0599 H         1 MOL       0.0000
   1162 H338        18.2668    15.2609     2.2353 H         1 MOL       0.0000
   1163 H339         2.6677    15.5291    10.8970 H         1 MOL       0.0000
   1164 H340        20.8402    21.1713     2.1152 H         1 MOL       0.0000
   1165 H341        13.5881     8.0607    11.0269 H         1 MOL       0.0000
   1166 H342         7.1783    22.6001     2.1040 H         1 MOL       0.0000
   1167 H343         7.0963    14.4872    13.0039 H         1 MOL       0.0000
   1168 H344        15.5825    18.9243     0.2147 H         1 MOL       0.0000
   1169 H345        13.1224    11.4281     5.9017 H         1 MOL       0.0000
   1170 H346        10.5120    23.3487     7.3053 H         1 MOL       0.0000
   1171 H347         3.5041    17.9385     9.0320 H         1 MOL       0.0000
   1172 H348        20.2128    17.0826     4.2206 H         1 MOL       0.0000
   1173 H349         5.8052    16.4911     5.6982 H         1 MOL       0.0000
   1174 H350         8.1368    25.0179     4.1352 H         1 MOL       0.0000
   1175 H351        11.6291    26.2928     2.6375 H         1 MOL       0.0000
   1176 H352        18.1090    13.2421     3.4378 H         1 MOL       0.0000
   1177 H353        14.3281    21.1918     2.3478 H         1 MOL       0.0000
   1178 H354         9.6435    14.1980    10.7530 H         1 MOL       0.0000
   1179 H355        16.8472    14.0301     9.8025 H         1 MOL       0.0000
   1180 H356        15.3661    13.5610    10.5498 H         1 MOL       0.0000
   1181 H357        17.4213    18.4637     8.7035 H         1 MOL       0.0000
   1182 H358        16.8516    18.8223     7.0850 H         1 MOL       0.0000
   1183 H359        16.3584     9.0752     9.6124 H         1 MOL       0.0000
   1184 H360        15.0792    10.1758    10.0698 H         1 MOL       0.0000
   1185 C373        18.0361    18.4257     4.7781 C         1 MOL       0.0000
   1186 C374         5.6670    16.5472     8.4324 C         1 MOL       0.0000
   1187 C375        13.3048    11.3389     8.5347 C         1 MOL       0.0000
   1188 C376        10.2993    23.4822     4.6457 C         1 MOL       0.0000
   1189 C377        18.9321    17.8214     5.7733 C         1 MOL       0.0000
   1190 C378         4.7351    17.1722     7.4553 C         1 MOL       0.0000
   1191 C379        14.2450    10.7245     7.5875 C         1 MOL       0.0000
   1192 C380         9.4095    24.1290     5.6455 C         1 MOL       0.0000
   1193 C381        18.6833    17.8963     7.1797 C         1 MOL       0.0000
   1194 C382         4.9515    17.0522     6.0673 C         1 MOL       0.0000
   1195 C383        15.3744     9.9642     8.0406 C         1 MOL       0.0000
   1196 C384         8.3148    24.9020     5.2006 C         1 MOL       0.0000
   1197 C385         9.6640    23.9582     7.0004 C         1 MOL       0.0000
   1198 C386        13.9972    10.8566     6.2036 C         1 MOL       0.0000
   1199 C387        20.0658    17.1224     5.2976 C         1 MOL       0.0000
   1200 C388         3.6349    17.8646     7.9540 C         1 MOL       0.0000
   1201 C389        18.2478    15.3400     0.0912 C         1 MOL       0.0000
   1202 C390        11.7781    27.1316     0.1162 C         1 MOL       0.0000
   1203 C391        16.0973    14.0371    13.0602 C         1 MOL       0.0000
   1204 C392         2.7390    15.5795    13.0408 C         1 MOL       0.0000
   1205 C393        12.9822    19.1685     5.6510 C         1 MOL       0.0000
   1206 C394         8.2261    12.0742     7.5691 C         1 MOL       0.0000
   1207 C395        13.4770     9.7288    13.1630 C         1 MOL       0.0000
   1208 C396        11.6854    25.6981     0.0787 C         1 MOL       0.0000
   1209 C397        14.7995    13.4203    13.1070 C         1 MOL       0.0000
   1210 C398         4.1413    15.9939    13.0653 C         1 MOL       0.0000
   1211 C399        18.2872    14.6709     1.3209 C         1 MOL       0.0000
   1212 C400         7.1404    20.7713    11.9738 C         1 MOL       0.0000
   1213 C401         5.3876    21.9349     1.1091 C         1 MOL       0.0000
   1214 C402         2.1062    15.3498    11.8123 C         1 MOL       0.0000
   1215 C403        16.7919    14.3054    11.8268 C         1 MOL       0.0000
   1216 C404         6.6768    22.4151     1.1583 C         1 MOL       0.0000
   1217 C405        13.6297     7.5335    11.9759 C         1 MOL       0.0000
   1218 C406        18.3089    13.2698     1.4025 C         1 MOL       0.0000
   1219 N61         18.3639    12.6709     2.6406 N         1 MOL       0.0000
   1220 N62         16.2129    14.1226    10.5878 N         1 MOL       0.0000
   1221 N63         17.6025    18.5426     7.7110 N         1 MOL       0.0000
   1222 N64         15.7054     9.8060     9.3580 N         1 MOL       0.0000
   1223 O241        16.8598    18.8308     5.1439 O         1 MOL       0.0000
   1224 O242         6.4360    15.5963     8.0341 O         1 MOL       0.0000
   1225 O243        13.6862    11.4633     9.7558 O         1 MOL       0.0000
   1226 O244        10.2335    23.9119     3.4461 O         1 MOL       0.0000
   1227 O245        11.0698    22.5250     5.0322 O         1 MOL       0.0000
   1228 O246        12.1343    11.7073     8.1292 O         1 MOL       0.0000
   1229 O247        18.4480    18.5065     3.5664 O         1 MOL       0.0000
   1230 O248         5.6250    16.9834     9.6321 O         1 MOL       0.0000
   1231 O249        15.7754    18.2516     2.5674 O         1 MOL       0.0000
   1232 O250         8.1292    16.1102    10.1324 O         1 MOL       0.0000
   1233 O251        16.7142    20.5389     3.0173 O         1 MOL       0.0000
   1234 O252         6.3770    14.3855    10.6251 O         1 MOL       0.0000
   1235 O253        10.9835    11.1776    10.7198 O         1 MOL       0.0000
   1236 O254        12.7520    23.0730     2.9479 O         1 MOL       0.0000
   1237 O255        11.9375    13.4391    10.2557 O         1 MOL       0.0000
   1238 O256        11.0458    21.3159     2.4305 O         1 MOL       0.0000
   1239 O257        14.2033    18.9886     5.2967 O         1 MOL       0.0000
   1240 O258         7.5684    13.1091     7.9473 O         1 MOL       0.0000
   1241 O259        13.3548    10.3234    12.0219 O         1 MOL       0.0000
   1242 O260        11.6023    24.9966     1.1739 O         1 MOL       0.0000
   1243 O261        14.1569    13.1115    12.0168 O         1 MOL       0.0000
   1244 O262         9.3663    23.1609     1.1138 O         1 MOL       0.0000
   1245 O263         9.3879    11.7796     8.0269 O         1 MOL       0.0000
   1246 O264        12.2403    20.0894     5.1576 O         1 MOL       0.0000
   1247 O265        18.8951    20.1861     1.1600 O         1 MOL       0.0000
   1248 O266         4.7408    16.2257    11.9478 O         1 MOL       0.0000
   1249 O267        18.0995    17.4318     1.1894 O         1 MOL       0.0000
   1250 O268         7.0090    18.0080    12.0291 O         1 MOL       0.0000
   1251 O269        13.9672    20.6431     3.0684 O         1 MOL       0.0000
   1252 O270         9.2653    13.6393    10.0495 O         1 MOL       0.0000
   1253 O271        16.4213    19.4179     0.1356 O         1 MOL       0.0000
   1254 O272         7.2187    15.4540    13.0639 O         1 MOL       0.0000
   1255 H361        13.2363    15.5651     8.6043 H         1 MOL       0.0000
   1256 H362         2.8711    24.6361     6.1981 H         1 MOL       0.0000
   1257 H363        13.9172    24.1600     5.7678 H         1 MOL       0.0000
   1258 H364        14.2174    17.0934     6.8758 H         1 MOL       0.0000
   1259 H365         9.6183    17.8960     8.6139 H         1 MOL       0.0000
   1260 H366        21.5889    11.3318     7.1418 H         1 MOL       0.0000
   1261 H367        10.9008    15.9107     9.3583 H         1 MOL       0.0000
   1262 H368        10.6469    19.4886     6.9619 H         1 MOL       0.0000
   1263 H369        15.2621    22.4217     4.6106 H         1 MOL       0.0000
   1264 H370        17.7255    22.3426     4.8874 H         1 MOL       0.0000
   1265 C407        12.4596    18.3412     6.7654 C         1 MOL       0.0000
   1266 C408        11.3570    16.6213     8.6710 C         1 MOL       0.0000
   1267 C409        15.7598    23.1633     5.2354 C         1 MOL       0.0000
   1268 C410         7.5586    11.0789     6.6995 C         1 MOL       0.0000
   1269 C411        11.1897    18.6103     7.3073 C         1 MOL       0.0000
   1270 C412        12.6693    16.4145     8.2266 C         1 MOL       0.0000
   1271 C413        15.0019    24.1619     5.8595 C         1 MOL       0.0000
   1272 C414         1.7937    24.6602     6.0505 C         1 MOL       0.0000
   1273 C415        17.1518    23.1287     5.3757 C         1 MOL       0.0000
   1274 C416        22.1587    10.5484     6.6495 C         1 MOL       0.0000
   1275 C417        13.2175    17.2660     7.2676 C         1 MOL       0.0000
   1276 C418        10.6291    17.7369     8.2411 C         1 MOL       0.0000
   1277 N65         14.7103    24.5548     1.2821 N         1 MOL       0.0000
   1278 N66         11.4260    16.4657    12.9818 N         1 MOL       0.0000
   1279 C419         9.9219    18.0301    13.1152 C         1 MOL       0.0000
   1280 C420        10.7514    17.4052    12.2350 C         1 MOL       0.0000
   1281 C421        13.7031    16.5963    11.9559 C         1 MOL       0.0000
   1282 C422        14.3254    25.2401     2.5362 C         1 MOL       0.0000
   1283 C423        15.6674    23.6150     1.1644 C         1 MOL       0.0000
   1284 C424        12.5646    15.7023    12.4436 C         1 MOL       0.0000
   1285 H371         9.3727    18.9529    12.9718 H         1 MOL       0.0000
   1286 H372        10.9268    17.5828    11.1925 H         1 MOL       0.0000
   1287 H373        13.3658    17.2746    11.1645 H         1 MOL       0.0000
   1288 H374        14.3144    26.3100     2.3367 H         1 MOL       0.0000
   1289 H375        14.1160    17.2119    12.7647 H         1 MOL       0.0000
   1290 H376        13.3530    24.8983     2.8572 H         1 MOL       0.0000
   1291 H377        14.5097    15.9810    11.5359 H         1 MOL       0.0000
   1292 H378        12.1960    15.0788    11.6208 H         1 MOL       0.0000
   1293 H379        15.0503    25.0501     3.3351 H         1 MOL       0.0000
   1294 H380        16.0727    23.0392     2.0003 H         1 MOL       0.0000
   1295 H381        17.5274    22.0976     0.1524 H         1 MOL       0.0000
   1296 N67         11.5425    21.2176    12.9004 N         1 MOL       0.0000
   1297 C425        10.0974    14.6991     1.3169 C         1 MOL       0.0000
   1298 C426        18.9690     8.7939    10.0025 C         1 MOL       0.0000
   1299 O273        23.5254    13.7851     2.7227 O         1 MOL       0.0000
   1300 O274        19.0415    26.0869     1.1232 O         1 MOL       0.0000
   1301 O275        10.7033    20.0138    10.6177 O         1 MOL       0.0000
   1302 O276        13.0350    20.0293     9.5144 O         1 MOL       0.0000
   1303 F73          9.9360    15.6774     2.3346 F         1 MOL       0.0000
   1304 F74         18.8777    11.0025    11.7408 F         1 MOL       0.0000
   1305 F75         11.3369    15.1111     0.7224 F         1 MOL       0.0000
   1306 F76          9.1629    14.1650     4.1816 F         1 MOL       0.0000
   1307 F77         18.4199     9.9666     9.8183 F         1 MOL       0.0000
   1308 F78         12.2227    22.8252     8.3133 F         1 MOL       0.0000
   1309 S25         17.1227    27.6829     0.8073 S         1 MOL       0.0000
   1310 S26         12.0664    20.6225    10.5742 S         1 MOL       0.0000
   1311 N68         12.8619    15.5360     3.5738 N         1 MOL       0.0000
   1312 N69         11.1424    16.3936     4.6568 N         1 MOL       0.0000
   1313 C427        13.9573    15.4481     2.5773 C         1 MOL       0.0000
   1314 C428        11.9650    16.5548     3.6076 C         1 MOL       0.0000
   1315 C429        12.6477    14.7522     4.6732 C         1 MOL       0.0000
   1316 C430        13.9655    14.0618     1.9454 C         1 MOL       0.0000
   1317 C431        11.5532    15.2309     5.3209 C         1 MOL       0.0000
   1318 C432         9.8887    17.1164     4.8312 C         1 MOL       0.0000
   1319 H382        14.8999    15.6893     3.0808 H         1 MOL       0.0000
   1320 H383        13.7689    16.2309     1.8297 H         1 MOL       0.0000
   1321 H384        11.8231    17.2917     2.8252 H         1 MOL       0.0000
   1322 H385        14.9193    13.8631     1.4477 H         1 MOL       0.0000
   1323 H386        13.2253    13.8140     4.8295 H         1 MOL       0.0000
   1324 H387         9.8765    17.5240     5.8494 H         1 MOL       0.0000
   1325 H388         9.8828    17.9311     4.0907 H         1 MOL       0.0000
   1326 H389        13.7918    13.2762     2.6919 H         1 MOL       0.0000
   1327 H390        11.0635    14.8847     6.2194 H         1 MOL       0.0000
   1328 H391        13.1643    13.9559     1.2128 H         1 MOL       0.0000
   1329 H392         9.0385    16.4413     4.6516 H         1 MOL       0.0000
   1330 N70          9.1587    14.6268     0.3957 N         1 MOL       0.0000
   1331 C433         7.9611    13.7313     3.7289 C         1 MOL       0.0000
   1332 C434        18.4947     8.0526    11.3295 C         1 MOL       0.0000
   1333 O277         5.1905    10.2115    12.8415 O         1 MOL       0.0000
   1334 O278        11.2438    12.4998     2.9414 O         1 MOL       0.0000
   1335 O279         5.9493     8.2613    11.4252 O         1 MOL       0.0000
   1336 O280         5.3178    27.2448     0.5081 O         1 MOL       0.0000
   1337 F79          6.9401    13.7363     4.8440 F         1 MOL       0.0000
   1338 F80         17.3729     8.6675    11.7259 F         1 MOL       0.0000
   1339 F81         16.1529    26.4867     1.4968 F         1 MOL       0.0000
   1340 F82          8.2072    12.3800     3.4539 F         1 MOL       0.0000
   1341 F83         20.3745     8.8712     9.8042 F         1 MOL       0.0000
   1342 F84         13.0783    19.6975    11.4522 F         1 MOL       0.0000
   1343 S27          4.9289     8.9156    12.2197 S         1 MOL       0.0000
   1344 S28          4.2534    27.3058     1.4814 S         1 MOL       0.0000
   1345 Ti57         1.9926     9.2198    24.3744 Ti        1 MOL       0.0000
   1346 Ti58        12.8230    12.1010    15.0096 Ti        1 MOL       0.0000
   1347 Ti59         6.0892     5.2836    22.5544 Ti        1 MOL       0.0000
   1348 Ti60         7.6004    14.4457    16.7814 Ti        1 MOL       0.0000
   1349 Ti61         6.6019    16.1240    14.8770 Ti        1 MOL       0.0000
   1350 Ti62         7.9775     5.0292    24.5078 Ti        1 MOL       0.0000
   1351 Ti63         2.9418     7.4839    22.4829 Ti        1 MOL       0.0000
   1352 Ti64        10.8352    12.4035    16.8571 Ti        1 MOL       0.0000
   1353 H393         2.4944    13.1168    24.1549 H         1 MOL       0.0000
   1354 H394        13.6318     8.1949    15.3303 H         1 MOL       0.0000
   1355 H395        -1.9673     8.4631    23.9920 H         1 MOL       0.0000
   1356 H396        16.2052    14.1053    15.2102 H         1 MOL       0.0000
   1357 H397         8.9531     0.9947    24.1219 H         1 MOL       0.0000
   1358 H398         2.5433    15.5341    15.1991 H         1 MOL       0.0000
   1359 H399         2.4613     7.4212    26.0989 H         1 MOL       0.0000
   1360 H400        10.9475    11.8583    13.3096 H         1 MOL       0.0000
   1361 H401         8.4874     4.3621    18.9967 H         1 MOL       0.0000
   1362 H402         5.8770    16.2827    20.4003 H         1 MOL       0.0000
   1363 H403        -1.1309    10.8725    22.1270 H         1 MOL       0.0000
   1364 H404        15.5778    10.0166    17.3156 H         1 MOL       0.0000
   1365 H405         1.1702     9.4251    18.7932 H         1 MOL       0.0000
   1366 H406         3.5018    17.9519    17.2302 H         1 MOL       0.0000
   1367 H407         6.9941    19.2268    15.7325 H         1 MOL       0.0000
   1368 H408        13.4740     6.1761    16.5328 H         1 MOL       0.0000
   1369 H409         9.6931    14.1258    15.4428 H         1 MOL       0.0000
   1370 H410         5.0085     7.1320    23.8480 H         1 MOL       0.0000
   1371 H411        12.2122     6.9641    22.8975 H         1 MOL       0.0000
   1372 H412        10.7311     6.4950    23.6448 H         1 MOL       0.0000
   1373 H413        12.7863    11.3977    21.7985 H         1 MOL       0.0000
   1374 H414        12.2166    11.7563    20.1800 H         1 MOL       0.0000
   1375 H415        11.7234     2.0092    22.7074 H         1 MOL       0.0000
   1376 H416        10.4442     3.1098    23.1648 H         1 MOL       0.0000
   1377 C435        13.4011    11.3597    17.8731 C         1 MOL       0.0000
   1378 C436         1.0320     9.4811    21.5274 C         1 MOL       0.0000
   1379 C437         8.6698     4.2729    21.6297 C         1 MOL       0.0000
   1380 C438         5.6643    16.4162    17.7407 C         1 MOL       0.0000
   1381 C439        14.2971    10.7554    18.8683 C         1 MOL       0.0000
   1382 C440         0.1001    10.1062    20.5503 C         1 MOL       0.0000
   1383 C441         9.6100     3.6585    20.6825 C         1 MOL       0.0000
   1384 C442         4.7745    17.0630    18.7405 C         1 MOL       0.0000
   1385 C443        14.0483    10.8303    20.2747 C         1 MOL       0.0000
   1386 C444         0.3165     9.9862    19.1623 C         1 MOL       0.0000
   1387 C445        10.7394     2.8982    21.1356 C         1 MOL       0.0000
   1388 C446         3.6798    17.8360    18.2956 C         1 MOL       0.0000
   1389 C447         5.0290    16.8923    20.0954 C         1 MOL       0.0000
   1390 C448         9.3622     3.7906    19.2986 C         1 MOL       0.0000
   1391 C449        15.4308    10.0564    18.3926 C         1 MOL       0.0000
   1392 C450        -1.0001    10.7986    21.0490 C         1 MOL       0.0000
   1393 C451        13.6128     8.2740    13.1862 C         1 MOL       0.0000
   1394 C452         7.1431    20.0656    13.2112 C         1 MOL       0.0000
   1395 C453        11.4623     6.9711    26.1552 C         1 MOL       0.0000
   1396 C454        -1.8960     8.5135    26.1358 C         1 MOL       0.0000
   1397 C455         8.3472    12.1025    18.7460 C         1 MOL       0.0000
   1398 C456         3.5911     5.0082    20.6641 C         1 MOL       0.0000
   1399 C457         8.8420     2.6628    26.2580 C         1 MOL       0.0000
   1400 C458         7.0504    18.6321    13.1737 C         1 MOL       0.0000
   1401 C459        10.1645     6.3543    26.2020 C         1 MOL       0.0000
   1402 C460        -0.4937     8.9279    26.1603 C         1 MOL       0.0000
   1403 C461        13.6522     7.6049    14.4159 C         1 MOL       0.0000
   1404 C462         2.5054    13.7053    25.0688 C         1 MOL       0.0000
   1405 C463         0.7526    14.8689    14.2041 C         1 MOL       0.0000
   1406 C464        -2.5288     8.2838    24.9073 C         1 MOL       0.0000
   1407 C465        12.1569     7.2394    24.9218 C         1 MOL       0.0000
   1408 C466         2.0418    15.3491    14.2533 C         1 MOL       0.0000
   1409 C467         8.9947     0.4675    25.0709 C         1 MOL       0.0000
   1410 C468        13.6739     6.2038    14.4975 C         1 MOL       0.0000
   1411 N71         13.7289     5.6049    15.7356 N         1 MOL       0.0000
   1412 N72         11.5779     7.0566    23.6828 N         1 MOL       0.0000
   1413 N73         12.9675    11.4766    20.8060 N         1 MOL       0.0000
   1414 N74         11.0704     2.7400    22.4530 N         1 MOL       0.0000
   1415 O281        12.2248    11.7648    18.2389 O         1 MOL       0.0000
   1416 O282         1.8010     8.5303    21.1291 O         1 MOL       0.0000
   1417 O283         9.0512     4.3973    22.8508 O         1 MOL       0.0000
   1418 O284         5.5985    16.8459    16.5412 O         1 MOL       0.0000
   1419 O285         6.4348    15.4590    18.1272 O         1 MOL       0.0000
   1420 O286         7.4993     4.6413    21.2242 O         1 MOL       0.0000
   1421 O287        13.8130    11.4405    16.6614 O         1 MOL       0.0000
   1422 O288         0.9900     9.9174    22.7271 O         1 MOL       0.0000
   1423 O289        11.1404    11.1856    15.6624 O         1 MOL       0.0000
   1424 O290         3.4942     9.0442    23.2274 O         1 MOL       0.0000
   1425 O291        12.0792    13.4729    16.1123 O         1 MOL       0.0000
   1426 O292         1.7420     7.3195    23.7201 O         1 MOL       0.0000
   1427 O293         6.3486     4.1116    23.8148 O         1 MOL       0.0000
   1428 O294         8.1170    16.0070    16.0429 O         1 MOL       0.0000
   1429 O295         7.3025     6.3731    23.3507 O         1 MOL       0.0000
   1430 O296         6.4108    14.2499    15.5255 O         1 MOL       0.0000
   1431 O297         9.5683    11.9226    18.3917 O         1 MOL       0.0000
   1432 O298         2.9334     6.0431    21.0423 O         1 MOL       0.0000
   1433 O299         8.7198     3.2574    25.1169 O         1 MOL       0.0000
   1434 O300         6.9673    17.9306    14.2689 O         1 MOL       0.0000
   1435 O301         9.5219     6.0455    25.1118 O         1 MOL       0.0000
   1436 O302         4.7313    16.0949    14.2088 O         1 MOL       0.0000
   1437 O303         4.7529     4.7136    21.1219 O         1 MOL       0.0000
   1438 O304         7.6053    13.0234    18.2526 O         1 MOL       0.0000
   1439 O305        14.2601    13.1201    14.2550 O         1 MOL       0.0000
   1440 O306         0.1058     9.1597    25.0428 O         1 MOL       0.0000
   1441 O307        13.4645    10.3658    14.2844 O         1 MOL       0.0000
   1442 O308         2.3740    10.9420    25.1241 O         1 MOL       0.0000
   1443 O309         9.3322    13.5771    16.1634 O         1 MOL       0.0000
   1444 O310         4.6303     6.5733    23.1445 O         1 MOL       0.0000
   1445 O311        11.7863    12.3519    13.2306 O         1 MOL       0.0000
   1446 O312         2.5837     8.3880    26.1589 O         1 MOL       0.0000
   1447 H417         8.6013     8.4991    21.6993 H         1 MOL       0.0000
   1448 H418        -1.7639    17.5701    19.2931 H         1 MOL       0.0000
   1449 H419         9.2822    17.0940    18.8628 H         1 MOL       0.0000
   1450 H420         9.5824    10.0274    19.9708 H         1 MOL       0.0000
   1451 H421         4.9833    10.8300    21.7089 H         1 MOL       0.0000
   1452 H422        16.9539     4.2658    20.2368 H         1 MOL       0.0000
   1453 H423         6.2658     8.8447    22.4533 H         1 MOL       0.0000
   1454 H424         6.0119    12.4226    20.0569 H         1 MOL       0.0000
   1455 H425        10.6271    15.3557    17.7056 H         1 MOL       0.0000
   1456 H426        13.0905    15.2766    17.9824 H         1 MOL       0.0000
   1457 C469         7.8246    11.2752    19.8604 C         1 MOL       0.0000
   1458 C470         6.7220     9.5553    21.7660 C         1 MOL       0.0000
   1459 C471        11.1248    16.0973    18.3304 C         1 MOL       0.0000
   1460 C472         2.9236     4.0129    19.7945 C         1 MOL       0.0000
   1461 C473         6.5547    11.5443    20.4023 C         1 MOL       0.0000
   1462 C474         8.0343     9.3485    21.3216 C         1 MOL       0.0000
   1463 C475        10.3669    17.0959    18.9545 C         1 MOL       0.0000
   1464 C476        -2.8413    17.5942    19.1455 C         1 MOL       0.0000
   1465 C477        12.5168    16.0627    18.4707 C         1 MOL       0.0000
   1466 C478        17.5237     3.4824    19.7445 C         1 MOL       0.0000
   1467 C479         8.5825    10.2000    20.3626 C         1 MOL       0.0000
   1468 C480         5.9941    10.6709    21.3361 C         1 MOL       0.0000
   1469 N75         10.0753    17.4888    14.3771 N         1 MOL       0.0000
   1470 N76          6.7910     9.3997    26.0768 N         1 MOL       0.0000
   1471 C481         5.2869    10.9641    26.2102 C         1 MOL       0.0000
   1472 C482         6.1164    10.3392    25.3300 C         1 MOL       0.0000
   1473 C483         9.0681     9.5303    25.0509 C         1 MOL       0.0000
   1474 C484         9.6904    18.1741    15.6312 C         1 MOL       0.0000
   1475 C485        11.0324    16.5490    14.2594 C         1 MOL       0.0000
   1476 C486         7.9296     8.6363    25.5386 C         1 MOL       0.0000
   1477 H427         4.7377    11.8869    26.0668 H         1 MOL       0.0000
   1478 H428         6.2918    10.5168    24.2875 H         1 MOL       0.0000
   1479 H429         8.7308    10.2086    24.2595 H         1 MOL       0.0000
   1480 H430         9.6794    19.2440    15.4317 H         1 MOL       0.0000
   1481 H431         9.4810    10.1459    25.8597 H         1 MOL       0.0000
   1482 H432         8.7180    17.8323    15.9522 H         1 MOL       0.0000
   1483 H433         9.8747     8.9150    24.6309 H         1 MOL       0.0000
   1484 H434         7.5610     8.0128    24.7158 H         1 MOL       0.0000
   1485 H435        10.4153    17.9841    16.4301 H         1 MOL       0.0000
   1486 H436        11.4377    15.9732    15.0953 H         1 MOL       0.0000
   1487 H437        12.8924    15.0316    13.2474 H         1 MOL       0.0000
   1488 N77          6.9075    14.1516    25.9954 N         1 MOL       0.0000
   1489 C487         5.4624     7.6331    14.4119 C         1 MOL       0.0000
   1490 C488        14.3340     1.7279    23.0975 C         1 MOL       0.0000
   1491 O313        18.8904     6.7191    15.8177 O         1 MOL       0.0000
   1492 O314        14.4065    19.0209    14.2182 O         1 MOL       0.0000
   1493 O315         6.0683    12.9478    23.7127 O         1 MOL       0.0000
   1494 O316         8.4000    12.9633    22.6094 O         1 MOL       0.0000
   1495 F85          5.3010     8.6114    15.4296 F         1 MOL       0.0000
   1496 F86         14.2427     3.9365    24.8358 F         1 MOL       0.0000
   1497 F87          6.7019     8.0451    13.8174 F         1 MOL       0.0000
   1498 F88          4.5279     7.0990    17.2766 F         1 MOL       0.0000
   1499 F89         13.7849     2.9006    22.9133 F         1 MOL       0.0000
   1500 F90          7.5877    15.7592    21.4083 F         1 MOL       0.0000
   1501 S29         12.4877    20.6169    13.9023 S         1 MOL       0.0000
   1502 S30          7.4314    13.5565    23.6692 S         1 MOL       0.0000
   1503 N78          8.2269     8.4700    16.6688 N         1 MOL       0.0000
   1504 N79          6.5074     9.3276    17.7518 N         1 MOL       0.0000
   1505 C489         9.3223     8.3821    15.6723 C         1 MOL       0.0000
   1506 C490         7.3300     9.4888    16.7026 C         1 MOL       0.0000
   1507 C491         8.0127     7.6862    17.7682 C         1 MOL       0.0000
   1508 C492         9.3305     6.9958    15.0404 C         1 MOL       0.0000
   1509 C493         6.9182     8.1649    18.4159 C         1 MOL       0.0000
   1510 C494         5.2537    10.0504    17.9262 C         1 MOL       0.0000
   1511 H438        10.2649     8.6233    16.1758 H         1 MOL       0.0000
   1512 H439         9.1339     9.1649    14.9247 H         1 MOL       0.0000
   1513 H440         7.1881    10.2257    15.9202 H         1 MOL       0.0000
   1514 H441        10.2843     6.7971    14.5427 H         1 MOL       0.0000
   1515 H442         8.5903     6.7480    17.9245 H         1 MOL       0.0000
   1516 H443         5.2415    10.4580    18.9444 H         1 MOL       0.0000
   1517 H444         5.2478    10.8651    17.1857 H         1 MOL       0.0000
   1518 H445         9.1568     6.2102    15.7869 H         1 MOL       0.0000
   1519 H446         6.4285     7.8187    19.3144 H         1 MOL       0.0000
   1520 H447         8.5293     6.8899    14.3078 H         1 MOL       0.0000
   1521 H448         4.4035     9.3753    17.7466 H         1 MOL       0.0000
   1522 N80          4.5237     7.5608    13.4907 N         1 MOL       0.0000
   1523 C495         3.3261     6.6653    16.8239 C         1 MOL       0.0000
   1524 C496        13.8597     0.9866    24.4245 C         1 MOL       0.0000
   1525 O317         0.5555     3.1455    25.9365 O         1 MOL       0.0000
   1526 O318         6.6088     5.4338    16.0364 O         1 MOL       0.0000
   1527 O319         1.3143     1.1953    24.5202 O         1 MOL       0.0000
   1528 O320         0.6828    20.1788    13.6031 O         1 MOL       0.0000
   1529 F91          2.3051     6.6703    17.9390 F         1 MOL       0.0000
   1530 F92         12.7379     1.6015    24.8209 F         1 MOL       0.0000
   1531 F93         11.5179    19.4207    14.5918 F         1 MOL       0.0000
   1532 F94          3.5722     5.3140    16.5489 F         1 MOL       0.0000
   1533 F95         15.7395     1.8052    22.8992 F         1 MOL       0.0000
   1534 F96          8.4433    12.6315    24.5472 F         1 MOL       0.0000
   1535 S31          0.2939     1.8496    25.3147 S         1 MOL       0.0000
   1536 S32         -0.3816    20.2398    14.5764 S         1 MOL       0.0000
@<TRIPOS>BOND
     1     1    78 1
     2     1    96 1
     3     7    88 1
     4     7   100 1
     5     1     7 1
     6     1    80 1
     7     1    82 1
     8     7    72 1
     9     7    80 1
    10     7    82 1
    11     1   102 1
    12     1   197 1
    13     1    98 1
    14     2     8 1
    15     2    79 1
    16     2    81 1
    17     2   101 1
    18     2    97 1
    19     2    77 1
    20     2    95 1
    21     3    93 1
    22     3   100 1
    23     3    76 1
    24     3    83 1
    25     3    85 1
    26     3     6 1
    27     4    86 1
    28     4    94 1
    29     4     5 1
    30     4    84 1
    31     4    75 1
    32     4    99 1
    33     5    92 1
    34     5    86 1
    35     5    74 1
    36     5    84 1
    37     5    90 1
    38     6    83 1
    39     6    85 1
    40     6   194 1
    41     6   293 1
    42   194   293 1
    43   208   293 1
    44   194   200 1
    45   194   271 1
    46   194   273 1
    47     6    73 1
    48     6    89 1
    49     6    91 1
    50   194   287 1
    51   194   289 1
    52   194   269 1
    53     8    79 1
    54     8    81 1
    55     8    99 1
    56    16   101 1
    57    25    99 1
    58     8    71 1
    59     8    87 1
    60     9    60 1
    61    59    66 1
    62    10    59 1
    63    49    59 1
    64    34    38 1
    65    34    78 1
    66    11    62 1
    67    34    72 1
    68    12   829 1
    69   829   832 1
    70    31    70 1
    71    32    70 1
    72    43    70 1
    73    13    65 1
    74    14    64 1
    75   197   284 1
    76   197   266 1
    77    15   102 1
    78   102   197 1
    79   197   276 1
    80   197   278 1
    81   197   282 1
    82    17    46 1
    83    36    40 1
    84    45   427 1
    85    36    74 1
    86    18    45 1
    87    36    75 1
    88    19    48 1
    89    20    47 1
    90    47   810 1
    91    21    42 1
    92   154   179 1
    93    22    44 1
    94    40    44 1
    95    44   430 1
    96    40    45 1
    97    56    90 1
    98    23   451 1
    99    50    56 1
   100    50   450 1
   101   408   451 1
   102   450   451 1
   103    24    67 1
   104    66    67 1
   105    26   100 1
   106   118   123 1
   107   109   114 1
   108   114   118 1
   109   114   124 1
   110    35    76 1
   111    39    43 1
   112    39    46 1
   113    35    39 1
   114    35    73 1
   115    27    68 1
   116    28    68 1
   117    29    69 1
   118    30    69 1
   119    33    71 1
   120    37    47 1
   121    41   816 1
   122    33    77 1
   123    33    37 1
   124    37    41 1
   125    41    69 1
   126    38    42 1
   127    38    48 1
   128    51    57 1
   129    57    91 1
   130    57   287 1
   131    51    63 1
   132    51  1021 1
   133    52    58 1
   134    52    62 1
   135    52   256 1
   136    58    96 1
   137    58   284 1
   138   113   123 1
   139   117   124 1
   140    53    94 1
   141    53   113 1
   142   110   117 1
   143   113   117 1
   144    53    87 1
   145    54   116 1
   146    54    88 1
   147    54    93 1
   148   251   258 1
   149    55   241 1
   150    65   241 1
   151   241   251 1
   152    55    89 1
   153    55   289 1
   154    60   242 1
   155    98   248 1
   156   242   248 1
   157   242   642 1
   158   248   282 1
   159   642   643 1
   160    60   449 1
   161    61    64 1
   162   129   132 1
   163    63    68 1
   164   129   135 1
   165   129   137 1
   166   129   139 1
   167    63   830 1
   168  1021  1024 1
   169   103   118 1
   170   104   120 1
   171   105   119 1
   172   111   115 1
   173   115   119 1
   174   119   506 1
   175   115   121 1
   176   506  1268 1
   177   106   123 1
   178   107   124 1
   179   149   158 1
   180   150   158 1
   181   158   190 1
   182   158   564 1
   183   947   956 1
   184   108   122 1
   185   122   884 1
   186   947   953 1
   187   112   121 1
   188   121   888 1
   189   872   888 1
   190   888  1268 1
   191   120   500 1
   192   166   177 1
   193   163   171 1
   194   160   162 1
   195   160   165 1
   196   160   166 1
   197   163   165 1
   198   165   175 1
   199   166   172 1
   200   166   173 1
   201   125   130 1
   202   125   131 1
   203   130   138 1
   204   130   141 1
   205   131   142 1
   206   130   136 1
   207   128   134 1
   208   126   128 1
   209   126   132 1
   210   126   323 1
   211   132   140 1
   212   132   335 1
   213   317   323 1
   214   323   334 1
   215   317   322 1
   216   127   133 1
   217   127   128 1
   218   127   317 1
   219   144   349 1
   220   349   379 1
   221   349   723 1
   222   349  1522 1
   223   145   178 1
   224   145   151 1
   225   145   153 1
   226   159   162 1
   227   162   169 1
   228   159   163 1
   229   159   161 1
   230   146   155 1
   231   146   189 1
   232   146   180 1
   233   147   947 1
   234   157   187 1
   235  1331  1337 1
   236   148   960 1
   237   157   531 1
   238   157  1330 1
   239   531  1331 1
   240   960  1297 1
   241   960  1334 1
   242  1297  1330 1
   243  1331  1340 1
   244  1297  1303 1
   245  1297  1305 1
   246   415   454 1
   247   156   530 1
   248   530   539 1
   249   530   564 1
   250   564   570 1
   251   530   573 1
   252   164   176 1
   253   164   170 1
   254   164   174 1
   255   161   164 1
   256   161   167 1
   257   161   168 1
   258   179   188 1
   259   179   185 1
   260   180   186 1
   261   181   191 1
   262   191   370 1
   263   337   370 1
   264   337   343 1
   265   337   345 1
   266   183   191 1
   267   184   192 1
   268   192   566 1
   269   192   529 1
   270   193   270 1
   271   193   274 1
   272   193   288 1
   273   193   199 1
   274   193   272 1
   275   193   294 1
   276   207   294 1
   277   218   292 1
   278   193   290 1
   279   195   285 1
   280   195   292 1
   281   195   268 1
   282   195   198 1
   283   195   275 1
   284   195   277 1
   285   198   265 1
   286   198   275 1
   287   198   277 1
   288   198   281 1
   289   198   283 1
   290   196   286 1
   291   196   291 1
   292   196   197 1
   293   196   267 1
   294   196   276 1
   295   196   278 1
   296   199   264 1
   297   199   274 1
   298   199   280 1
   299   199   272 1
   300   199   292 1
   301   200   291 1
   302   200   263 1
   303   200   271 1
   304   200   273 1
   305   200   279 1
   306   201   252 1
   307   319   325 1
   308   252   641 1
   309   319   320 1
   310   202   251 1
   311   212   239 1
   312   239  1002 1
   313   203   254 1
   314   244   254 1
   315   244   250 1
   316   204  1021 1
   317   205   257 1
   318   247   281 1
   319   206   256 1
   320   228   232 1
   321   228   266 1
   322   232   237 1
   323   232   236 1
   324   228   267 1
   325   209   238 1
   326   227   268 1
   327   227   265 1
   328   227   231 1
   329   210   237 1
   330   348   722 1
   331   297   311 1
   332   211   240 1
   333   213   234 1
   334   226   230 1
   335   226   264 1
   336   230   234 1
   337   226   270 1
   338   230   240 1
   339   214   236 1
   340   236   622 1
   341   215   643 1
   342   600   643 1
   343   216   259 1
   344   217   291 1
   345   303   307 1
   346   304   313 1
   347   307   313 1
   348   307   311 1
   349   313  1080 1
   350   243   249 1
   351   219   260 1
   352   243   255 1
   353   255   260 1
   354   255  1022 1
   355   224   262 1
   356   249   283 1
   357   220   260 1
   358   221   261 1
   359   222   261 1
   360   223   262 1
   361   225   263 1
   362   225   269 1
   363   225   229 1
   364   233   261 1
   365   229   239 1
   366   233  1008 1
   367   979  1008 1
   368   229   233 1
   369   231   238 1
   370   235   262 1
   371   231   235 1
   372   237   619 1
   373   619   646 1
   374   245   286 1
   375   245   305 1
   376   245   279 1
   377   246   280 1
   378   246   285 1
   379   246   308 1
   380   250   288 1
   381   253   256 1
   382   258   259 1
   383   295   310 1
   384   301   306 1
   385   306   310 1
   386   310   315 1
   387   306   316 1
   388   296   312 1
   389   298   315 1
   390   299   316 1
   391   300   314 1
   392   305   315 1
   393   302   309 1
   394   305   309 1
   395   309   316 1
   396   311   698 1
   397  1080  1460 1
   398   312   692 1
   399   314  1076 1
   400  1014  1048 1
   401  1014  1076 1
   402  1014  1053 1
   403   318   324 1
   404   321   324 1
   405   321   327 1
   406   321   329 1
   407   324   332 1
   408   318   320 1
   409   321   331 1
   410   320   326 1
   411   341   350 1
   412   342   350 1
   413   350   382 1
   414   350   756 1
   415   322   330 1
   416   322   328 1
   417   322   333 1
   418   723  1523 1
   419  1523  1529 1
   420  1523  1532 1
   421   722   731 1
   422   722   756 1
   423   722   765 1
   424   756   762 1
   425   372   378 1
   426   338   372 1
   427   338   381 1
   428  1141  1151 1
   429   338   347 1
   430   339  1139 1
   431   340  1152 1
   432  1144  1152 1
   433  1152  1526 1
   434  1152  1489 1
   435   371   380 1
   436   346   371 1
   437   358   369 1
   438   371   377 1
   439   358   365 1
   440   358   364 1
   441   352   358 1
   442   356   366 1
   443   353   360 1
   444   356   368 1
   445   351   353 1
   446   351   354 1
   447   351   355 1
   448   352   354 1
   449   352   357 1
   450   353   356 1
   451   354   361 1
   452   355   357 1
   453   355   363 1
   454   357   367 1
   455   356   362 1
   456   353   359 1
   457   373   383 1
   458   375   383 1
   459   376   384 1
   460   384   758 1
   461   384   721 1
   462   418   422 1
   463   385   480 1
   464   385   466 1
   465   391   466 1
   466   391   472 1
   467   385   391 1
   468   385   462 1
   469   385   464 1
   470   391   456 1
   471   391   464 1
   472   418   456 1
   473   418   462 1
   474   385   482 1
   475   385   486 1
   476   385   581 1
   477   391   484 1
   478   386   392 1
   479   386   463 1
   480   386   481 1
   481   386   461 1
   482   386   465 1
   483   386   479 1
   484   386   485 1
   485   387   460 1
   486   387   467 1
   487   387   469 1
   488   387   477 1
   489   387   484 1
   490   410   484 1
   491   387   390 1
   492   388   470 1
   493   388   478 1
   494   388   389 1
   495   388   459 1
   496   388   483 1
   497   388   468 1
   498   389   470 1
   499   389   458 1
   500   389   474 1
   501   389   476 1
   502   389   468 1
   503   390   467 1
   504   390   469 1
   505   390   677 1
   506   578   677 1
   507   578   584 1
   508   578   655 1
   509   578   657 1
   510   390   473 1
   511   578   673 1
   512   390   457 1
   513   390   475 1
   514   390   578 1
   515   441   475 1
   516   441   671 1
   517   578   671 1
   518   578   653 1
   519   392   463 1
   520   392   483 1
   521   409   483 1
   522   392   471 1
   523   392   465 1
   524   400   485 1
   525   392   455 1
   526   393   444 1
   527   443   450 1
   528   394   443 1
   529   433   443 1
   530   403   432 1
   531   395   446 1
   532   396  1213 1
   533  1213  1216 1
   534   416   454 1
   535   427   454 1
   536   397   449 1
   537   398   448 1
   538   581   668 1
   539   581   662 1
   540   399   486 1
   541   486   581 1
   542   581   666 1
   543   581   650 1
   544   581   660 1
   545   482   632 1
   546   423   427 1
   547   401   430 1
   548   423   430 1
   549   424   428 1
   550   420   458 1
   551   402   429 1
   552   420   424 1
   553   420   459 1
   554   424   429 1
   555  1190  1200 1
   556   404   431 1
   557   431  1194 1
   558  1173  1194 1
   559  1190  1194 1
   560   405   426 1
   561   406   428 1
   562   434   440 1
   563   411   452 1
   564   419   460 1
   565   419   423 1
   566   419   457 1
   567   412   452 1
   568   413   453 1
   569   417   421 1
   570   417   461 1
   571   417   455 1
   572   414   453 1
   573   421   425 1
   574   425  1200 1
   575   425   453 1
   576   421   431 1
   577   422   432 1
   578   422   426 1
   579   435   441 1
   580   447   452 1
   581   435   447 1
   582   435  1405 1
   583   447  1214 1
   584  1405  1408 1
   585   436   442 1
   586   436   446 1
   587   436   640 1
   588   442   480 1
   589   442   668 1
   590   437   478 1
   591   497   501 1
   592   497   507 1
   593   437   471 1
   594   437   497 1
   595   438   500 1
   596   438   472 1
   597   438   477 1
   598   635   642 1
   599   439   473 1
   600   439   625 1
   601   439   673 1
   602   449   625 1
   603   625   635 1
   604   440   474 1
   605   632   666 1
   606   444   626 1
   607   626   632 1
   608   445   448 1
   609   509   514 1
   610   509   515 1
   611   514   522 1
   612   514   525 1
   613   514   520 1
   614   515   526 1
   615   501   508 1
   616   494   501 1
   617   502   507 1
   618   487   502 1
   619   488   504 1
   620   489   503 1
   621   495   499 1
   622   499   503 1
   623   499   505 1
   624   547   549 1
   625   547   555 1
   626   490   507 1
   627   491   508 1
   628   493   498 1
   629   498   508 1
   630   498   502 1
   631   492   506 1
   632   496   505 1
   633   505  1272 1
   634  1256  1272 1
   635   512   518 1
   636   510   512 1
   637   510   707 1
   638   511   512 1
   639   511   701 1
   640   701   707 1
   641   701   706 1
   642   707   718 1
   643   511   517 1
   644   510   516 1
   645   516   524 1
   646   513   519 1
   647   513   516 1
   648   513   521 1
   649   513   523 1
   650   516   719 1
   651   528   733 1
   652   529   535 1
   653   529   537 1
   654   529   562 1
   655   546   553 1
   656   541   571 1
   657   532  1344 1
   658   533   542 1
   659   542   574 1
   660   534   542 1
   661   538   563 1
   662   543   546 1
   663   545   548 1
   664   543   545 1
   665   545   551 1
   666   545   552 1
   667   543   547 1
   668   544   546 1
   669   544   549 1
   670   544   550 1
   671   549   559 1
   672   550   556 1
   673   550   557 1
   674   550   561 1
   675   548   554 1
   676   548   558 1
   677   548   560 1
   678   563   572 1
   679   563   569 1
   680   575   754 1
   681   721   754 1
   682   565   575 1
   683   567   575 1
   684   721   729 1
   685   721   727 1
   686   568   576 1
   687   733   763 1
   688   724  1536 1
   689   577   654 1
   690   577   672 1
   691   577   583 1
   692   577   656 1
   693   577   658 1
   694   577   678 1
   695   591   678 1
   696   577   674 1
   697   579   676 1
   698   579   652 1
   699   579   669 1
   700   579   582 1
   701   579   659 1
   702   579   661 1
   703   593   622 1
   704   616   620 1
   705   580   662 1
   706   580   670 1
   707   580   581 1
   708   580   651 1
   709   580   660 1
   710   612   616 1
   711   612   650 1
   712   612   651 1
   713   616   621 1
   714   580   675 1
   715   582   659 1
   716   582   661 1
   717   582   649 1
   718   582   665 1
   719   582   667 1
   720   610   614 1
   721   610   654 1
   722   583   664 1
   723   583   676 1
   724   583   648 1
   725   610   648 1
   726   583   656 1
   727   583   658 1
   728   584   647 1
   729   584   655 1
   730   584   657 1
   731   584   663 1
   732   584   675 1
   733   601   675 1
   734   585   636 1
   735   586   635 1
   736   596   623 1
   737   623  1386 1
   738   587   638 1
   739   628   634 1
   740   628   638 1
   741   634   672 1
   742   588  1405 1
   743   607   646 1
   744   608   646 1
   745   589   641 1
   746   631   665 1
   747   590   640 1
   748   598   620 1
   749   592   677 1
   750   594   621 1
   751   595   624 1
   752   597   618 1
   753   730   755 1
   754   602   676 1
   755   702   704 1
   756   702   708 1
   757   704   710 1
   758   708   716 1
   759   705   708 1
   760   627   633 1
   761   603   644 1
   762   627   639 1
   763   639   644 1
   764   705   711 1
   765   705   713 1
   766   705   715 1
   767   639  1406 1
   768   633   667 1
   769   604   644 1
   770   613   623 1
   771   617  1392 1
   772   605   645 1
   773   613   617 1
   774   617   645 1
   775   606   645 1
   776   609   647 1
   777   609   653 1
   778   609   613 1
   779   611   652 1
   780   615   619 1
   781   611   615 1
   782   615   622 1
   783   611   649 1
   784   614   618 1
   785   614   624 1
   786   629   670 1
   787   629   689 1
   788   629   663 1
   789   630   664 1
   790   630   692 1
   791   630   669 1
   792   637   640 1
   793   679   694 1
   794   682   699 1
   795   680   696 1
   796   681   695 1
   797   683   700 1
   798   693   700 1
   799   686   693 1
   800   689   693 1
   801   689   699 1
   802   684   698 1
   803   698  1460 1
   804  1351  1432 1
   805  1398  1432 1
   806  1398  1460 1
   807  1351  1426 1
   808  1351  1416 1
   809  1351  1424 1
   810  1398  1437 1
   811  1351  1444 1
   812   685   690 1
   813   690   694 1
   814   690   700 1
   815   694   699 1
   816   687   691 1
   817   706   714 1
   818   706   717 1
   819   691   695 1
   820   706   712 1
   821   691   697 1
   822   688   697 1
   823   697  1464 1
   824   703   709 1
   825   703   704 1
   826   725   734 1
   827   726   734 1
   828   734   766 1
   829   742   753 1
   830   735   738 1
   831   735   739 1
   832   736   738 1
   833   736   741 1
   834   736   742 1
   835   738   745 1
   836   739   741 1
   837   741   751 1
   838   742   748 1
   839   742   749 1
   840   739   747 1
   841   735   737 1
   842   737   740 1
   843   737   744 1
   844   737   743 1
   845   740   746 1
   846   740   752 1
   847   740   750 1
   848   755   761 1
   849   755   764 1
   850   757   767 1
   851   759   767 1
   852   760   768 1
   853   965  1052 1
   854   769   775 1
   855   769   850 1
   856   965  1046 1
   857   769   846 1
   858   769   848 1
   859   769   864 1
   860   769   866 1
   861   769   870 1
   862   769   965 1
   863   870   965 1
   864   965  1050 1
   865   965  1034 1
   866   965  1044 1
   867   866  1016 1
   868   770   847 1
   869   770   776 1
   870   770   865 1
   871   770   845 1
   872   770   849 1
   873   770   863 1
   874   770   869 1
   875   771   844 1
   876   771   851 1
   877   771   853 1
   878   771   861 1
   879   771   868 1
   880   794   868 1
   881   771   774 1
   882   772   854 1
   883   772   773 1
   884   772   843 1
   885   772   867 1
   886   793   867 1
   887   772   862 1
   888   772   852 1
   889   784   869 1
   890   773   854 1
   891   773   842 1
   892   773   858 1
   893   773   860 1
   894   824   858 1
   895   773   852 1
   896   774   851 1
   897   774   853 1
   898   774  1061 1
   899   774   857 1
   900   774   841 1
   901   774   859 1
   902   825   859 1
   903   825  1055 1
   904   774   962 1
   905   822   884 1
   906   775   850 1
   907   775   856 1
   908   822   856 1
   909   775   840 1
   910   775   848 1
   911   775   868 1
   912   822   861 1
   913   776   847 1
   914   821   881 1
   915   776   867 1
   916   776   855 1
   917   821   855 1
   918   821   862 1
   919   776   849 1
   920   776   839 1
   921   777   828 1
   922   827   834 1
   923   778   827 1
   924   817   827 1
   925   787   816 1
   926   779   830 1
   927   807   814 1
   928   800   838 1
   929   807   811 1
   930   811   838 1
   931   781   833 1
   932   782   832 1
   933   783   870 1
   934   785   814 1
   935   808   812 1
   936   804   842 1
   937   786   813 1
   938   804   808 1
   939   804   843 1
   940   808   813 1
   941   813  1195 1
   942   788   815 1
   943   789   810 1
   944   790   812 1
   945   812  1198 1
   946   818   824 1
   947   791  1219 1
   948   818  1218 1
   949  1176  1219 1
   950  1211  1218 1
   951  1218  1219 1
   952   792   835 1
   953   834   835 1
   954   795   836 1
   955   803   844 1
   956   803   807 1
   957   803   841 1
   958   796   836 1
   959   797   837 1
   960   801   805 1
   961   801   845 1
   962   801   839 1
   963   798   837 1
   964   799   838 1
   965   914   923 1
   966   914   948 1
   967   914   957 1
   968   806   816 1
   969   806   810 1
   970   802   806 1
   971   802   840 1
   972   802   846 1
   973   805   809 1
   974   809   837 1
   975   805   815 1
   976   819   825 1
   977   831   836 1
   978   819   831 1
   979   820   826 1
   980   820   830 1
   981   820  1024 1
   982   826  1052 1
   983   826   864 1
   984  1019  1026 1
   985   823   857 1
   986   823  1009 1
   987   823  1057 1
   988   833  1009 1
   989  1009  1019 1
   990  1016  1050 1
   991   828  1010 1
   992  1010  1016 1
   993  1010  1410 1
   994  1410  1411 1
   995   828  1217 1
   996   927   930 1
   997   929   932 1
   998   927   929 1
   999   929   935 1
  1000   929   936 1
  1001   927   931 1
  1002   893   898 1
  1003   893   899 1
  1004   898   906 1
  1005   898   909 1
  1006   898   904 1
  1007   899   910 1
  1008   886   891 1
  1009   871   886 1
  1010   873   887 1
  1011   879   883 1
  1012   883   887 1
  1013   887  1274 1
  1014   883   889 1
  1015   931   933 1
  1016   881   885 1
  1017   931   939 1
  1018   874   891 1
  1019   881   891 1
  1020   875   892 1
  1021   877   882 1
  1022   882   892 1
  1023   882   886 1
  1024   876   890 1
  1025   885   892 1
  1026   878   885 1
  1027   880   889 1
  1028   896   902 1
  1029   894   896 1
  1030   894  1091 1
  1031   895   896 1
  1032   895  1085 1
  1033  1085  1091 1
  1034  1085  1090 1
  1035  1091  1102 1
  1036   895   901 1
  1037   894   900 1
  1038   900   908 1
  1039   897   903 1
  1040   897   900 1
  1041   897   905 1
  1042   897   907 1
  1043   900  1103 1
  1044   912  1117 1
  1045   913   919 1
  1046   913   921 1
  1047   913   946 1
  1048   930   937 1
  1049   925   955 1
  1050   925  1299 1
  1051   917   926 1
  1052   926  1332 1
  1053   926   958 1
  1054   918   926 1
  1055   922   947 1
  1056  1183  1222 1
  1057  1184  1222 1
  1058  1195  1222 1
  1059   924  1298 1
  1060   928   930 1
  1061   928   933 1
  1062   928   934 1
  1063   933   943 1
  1064   934   940 1
  1065   934   941 1
  1066   934   945 1
  1067   932   938 1
  1068   932   942 1
  1069   932   944 1
  1070   948   954 1
  1071   959  1138 1
  1072  1105  1138 1
  1073   949   959 1
  1074   951   959 1
  1075  1105  1113 1
  1076  1105  1111 1
  1077   952   960 1
  1078  1316  1322 1
  1079  1316  1326 1
  1080  1316  1328 1
  1081  1117  1147 1
  1082  1117  1491 1
  1083   961  1056 1
  1084   967  1048 1
  1085   967  1060 1
  1086   967  1032 1
  1087   961   967 1
  1088   961  1038 1
  1089   961  1040 1
  1090   961  1042 1
  1091   961  1062 1
  1092   967  1040 1
  1093   967  1042 1
  1094   975  1062 1
  1095   961  1058 1
  1096   962  1061 1
  1097   962   968 1
  1098   962  1039 1
  1099   962  1041 1
  1100   993  1031 1
  1101   962  1057 1
  1102   993   997 1
  1103   962  1055 1
  1104   962  1037 1
  1105   993  1037 1
  1106   963  1060 1
  1107   963  1036 1
  1108   963  1053 1
  1109   963   966 1
  1110   963  1043 1
  1111   963  1045 1
  1112   966  1043 1
  1113   966  1045 1
  1114   966  1049 1
  1115   966  1033 1
  1116   966  1051 1
  1117   964  1046 1
  1118   964  1054 1
  1119   964   965 1
  1120   964  1035 1
  1121   964  1044 1
  1122   964  1059 1
  1123   968  1031 1
  1124   968  1039 1
  1125   968  1041 1
  1126   968  1047 1
  1127   968  1059 1
  1128   985  1059 1
  1129   969  1020 1
  1130  1020  1409 1
  1131   970  1019 1
  1132   980  1007 1
  1133   971  1022 1
  1134  1012  1018 1
  1135  1012  1022 1
  1136  1018  1056 1
  1137   973  1025 1
  1138   991  1030 1
  1139   992  1030 1
  1140   974  1024 1
  1141   982  1004 1
  1142  1004  1390 1
  1143   976  1061 1
  1144   995  1036 1
  1145   999  1003 1
  1146   977  1006 1
  1147   995   999 1
  1148   999  1006 1
  1149   995  1033 1
  1150  1000  1004 1
  1151  1005  1387 1
  1152   978  1005 1
  1153  1000  1005 1
  1154  1116  1490 1
  1155   981  1002 1
  1156   994   998 1
  1157   994  1032 1
  1158   994  1038 1
  1159   983  1411 1
  1160  1368  1411 1
  1161   984  1027 1
  1162   986  1060 1
  1163  1069  1074 1
  1164  1086  1088 1
  1165  1086  1092 1
  1166  1088  1094 1
  1167  1092  1100 1
  1168   987  1028 1
  1169   988  1028 1
  1170  1011  1017 1
  1171  1011  1023 1
  1172   989  1029 1
  1173   990  1029 1
  1174   996  1034 1
  1175   996  1035 1
  1176   996  1000 1
  1177   997  1007 1
  1178   997  1001 1
  1179  1001  1029 1
  1180   998  1002 1
  1181   998  1008 1
  1182  1003  1030 1
  1183  1077  1084 1
  1184  1013  1054 1
  1185  1013  1073 1
  1186  1070  1077 1
  1187  1073  1077 1
  1188  1073  1083 1
  1189  1013  1047 1
  1190  1015  1049 1
  1191  1017  1051 1
  1192  1089  1092 1
  1193  1023  1028 1
  1194  1089  1095 1
  1195  1089  1097 1
  1196  1089  1099 1
  1197  1026  1027 1
  1198  1063  1078 1
  1199  1066  1083 1
  1200  1064  1080 1
  1201  1065  1079 1
  1202  1079  1466 1
  1203  1067  1084 1
  1204  1074  1078 1
  1205  1074  1084 1
  1206  1078  1083 1
  1207  1068  1082 1
  1208  1071  1075 1
  1209  1090  1098 1
  1210  1090  1101 1
  1211  1075  1079 1
  1212  1090  1096 1
  1213  1075  1081 1
  1214  1072  1081 1
  1215  1087  1088 1
  1216  1087  1093 1
  1217  1109  1118 1
  1218  1110  1118 1
  1219  1118  1150 1
  1220  1118  1524 1
  1221  1106  1115 1
  1222  1106  1140 1
  1223  1106  1149 1
  1224  1140  1146 1
  1225  1126  1137 1
  1226  1119  1122 1
  1227  1119  1123 1
  1228  1120  1122 1
  1229  1120  1125 1
  1230  1120  1126 1
  1231  1122  1129 1
  1232  1123  1125 1
  1233  1125  1135 1
  1234  1126  1132 1
  1235  1126  1133 1
  1236  1123  1131 1
  1237  1119  1121 1
  1238  1114  1139 1
  1239  1139  1145 1
  1240  1139  1148 1
  1241  1121  1124 1
  1242  1121  1128 1
  1243  1121  1127 1
  1244  1124  1130 1
  1245  1124  1136 1
  1246  1124  1134 1
  1247  1143  1151 1
  1248  1153  1234 1
  1249  1349  1430 1
  1250  1153  1230 1
  1251  1153  1248 1
  1252  1153  1250 1
  1253  1153  1254 1
  1254  1153  1349 1
  1255  1210  1248 1
  1256  1210  1436 1
  1257  1250  1400 1
  1258  1254  1349 1
  1259  1349  1434 1
  1260  1349  1436 1
  1261  1400  1434 1
  1262  1349  1418 1
  1263  1153  1159 1
  1264  1153  1232 1
  1265  1349  1428 1
  1266  1154  1229 1
  1267  1154  1231 1
  1268  1154  1249 1
  1269  1154  1233 1
  1270  1154  1253 1
  1271  1168  1253 1
  1272  1154  1160 1
  1273  1154  1247 1
  1274  1159  1234 1
  1275  1159  1224 1
  1276  1206  1268 1
  1277  1155  1235 1
  1278  1155  1245 1
  1279  1155  1252 1
  1280  1159  1240 1
  1281  1159  1252 1
  1282  1178  1252 1
  1283  1206  1240 1
  1284  1206  1245 1
  1285  1159  1232 1
  1286  1155  1228 1
  1287  1155  1237 1
  1288  1155  1158 1
  1289  1156  1238 1
  1290  1156  1157 1
  1291  1156  1227 1
  1292  1156  1251 1
  1293  1177  1251 1
  1294  1156  1246 1
  1295  1156  1236 1
  1296  1157  1238 1
  1297  1157  1226 1
  1298  1157  1244 1
  1299  1157  1236 1
  1300  1157  1242 1
  1301  1158  1235 1
  1302  1158  1241 1
  1303  1158  1225 1
  1304  1158  1237 1
  1305  1158  1243 1
  1306  1158  1445 1
  1307  1209  1243 1
  1308  1209  1439 1
  1309  1158  1346 1
  1310  1160  1251 1
  1311  1160  1239 1
  1312  1160  1231 1
  1313  1182  1221 1
  1314  1160  1233 1
  1315  1160  1223 1
  1316  1263  1267 1
  1317  1264  1273 1
  1318  1161  1212 1
  1319  1162  1211 1
  1320  1201  1211 1
  1321  1171  1200 1
  1322  1163  1214 1
  1323  1191  1198 1
  1324  1165  1217 1
  1325  1191  1195 1
  1326  1166  1216 1
  1327  1167  1254 1
  1328  1169  1198 1
  1329  1315  1323 1
  1330  1315  1317 1
  1331  1188  1226 1
  1332  1170  1197 1
  1333  1174  1196 1
  1334  1188  1192 1
  1335  1188  1227 1
  1336  1192  1196 1
  1337  1192  1197 1
  1338  1189  1193 1
  1339  1172  1199 1
  1340  1189  1199 1
  1341  1202  1208 1
  1342  1179  1220 1
  1343  1180  1220 1
  1344  1181  1221 1
  1345  1185  1229 1
  1346  1193  1221 1
  1347  1185  1223 1
  1348  1185  1189 1
  1349  1186  1190 1
  1350  1186  1224 1
  1351  1186  1230 1
  1352  1187  1191 1
  1353  1187  1225 1
  1354  1187  1228 1
  1355  1203  1209 1
  1356  1215  1220 1
  1357  1203  1215 1
  1358  1204  1214 1
  1359  1204  1408 1
  1360  1204  1210 1
  1361  1205  1265 1
  1362  1205  1239 1
  1363  1205  1246 1
  1364  1403  1410 1
  1365  1207  1241 1
  1366  1207  1393 1
  1367  1207  1441 1
  1368  1217  1393 1
  1369  1393  1403 1
  1370  1208  1242 1
  1371  1277  1282 1
  1372  1282  1290 1
  1373  1282  1288 1
  1374  1277  1283 1
  1375  1282  1293 1
  1376  1394  1400 1
  1377  1212  1394 1
  1378  1259  1276 1
  1379  1261  1266 1
  1380  1266  1276 1
  1381  1270  1275 1
  1382  1255  1270 1
  1383  1266  1270 1
  1384  1257  1271 1
  1385  1317  1327 1
  1386  1265  1269 1
  1387  1258  1275 1
  1388  1265  1275 1
  1389  1260  1274 1
  1390  1262  1269 1
  1391  1267  1271 1
  1392  1267  1273 1
  1393  1312  1318 1
  1394  1318  1324 1
  1395  1318  1325 1
  1396  1318  1329 1
  1397  1269  1276 1
  1398  1312  1314 1
  1399  1312  1317 1
  1400  1278  1280 1
  1401  1278  1475 1
  1402  1281  1287 1
  1403  1278  1284 1
  1404  1281  1284 1
  1405  1281  1289 1
  1406  1281  1291 1
  1407  1284  1292 1
  1408  1284  1487 1
  1409  1280  1286 1
  1410  1279  1280 1
  1411  1279  1469 1
  1412  1469  1475 1
  1413  1469  1474 1
  1414  1279  1285 1
  1415  1475  1486 1
  1416  1283  1294 1
  1417  1296  1501 1
  1418  1501  1531 1
  1419  1298  1307 1
  1420  1298  1332 1
  1421  1298  1341 1
  1422  1301  1310 1
  1423  1302  1310 1
  1424  1310  1342 1
  1425  1313  1316 1
  1426  1311  1315 1
  1427  1311  1313 1
  1428  1311  1314 1
  1429  1313  1319 1
  1430  1313  1320 1
  1431  1314  1321 1
  1432  1306  1331 1
  1433  1309  1339 1
  1434  1332  1338 1
  1435  1333  1343 1
  1436  1335  1343 1
  1437  1343  1522 1
  1438  1489  1497 1
  1439  1489  1522 1
  1440  1489  1495 1
  1441  1336  1344 1
  1442  1345  1351 1
  1443  1345  1426 1
  1444  1345  1422 1
  1445  1345  1424 1
  1446  1345  1440 1
  1447  1345  1442 1
  1448  1345  1446 1
  1449  1346  1423 1
  1450  1346  1352 1
  1451  1346  1441 1
  1452  1377  1381 1
  1453  1346  1439 1
  1454  1346  1445 1
  1455  1346  1421 1
  1456  1346  1425 1
  1457  1377  1415 1
  1458  1377  1421 1
  1459  1347  1420 1
  1460  1347  1437 1
  1461  1347  1427 1
  1462  1347  1429 1
  1463  1347  1444 1
  1464  1370  1444 1
  1465  1347  1350 1
  1466  1348  1430 1
  1467  1348  1349 1
  1468  1348  1419 1
  1469  1352  1423 1
  1470  1348  1438 1
  1471  1348  1443 1
  1472  1352  1431 1
  1473  1352  1443 1
  1474  1369  1443 1
  1475  1397  1431 1
  1476  1397  1438 1
  1477  1397  1457 1
  1478  1348  1428 1
  1479  1352  1415 1
  1480  1352  1425 1
  1481  1350  1427 1
  1482  1350  1429 1
  1483  1350  1433 1
  1484  1350  1417 1
  1485  1350  1435 1
  1486  1401  1435 1
  1487  1372  1412 1
  1488  1353  1404 1
  1489  1354  1403 1
  1490  1355  1406 1
  1491  1396  1402 1
  1492  1396  1406 1
  1493  1402  1440 1
  1494  1376  1414 1
  1495  1357  1409 1
  1496  1358  1408 1
  1497  1366  1388 1
  1498  1359  1446 1
  1499  1360  1445 1
  1500  1379  1420 1
  1501  1379  1383 1
  1502  1361  1390 1
  1503  1379  1417 1
  1504  1362  1389 1
  1505  1363  1392 1
  1506  1364  1391 1
  1507  1382  1392 1
  1508  1365  1386 1
  1509  1378  1382 1
  1510  1378  1416 1
  1511  1382  1386 1
  1512  1378  1422 1
  1513  1395  1401 1
  1514  1371  1412 1
  1515  1395  1407 1
  1516  1407  1412 1
  1517  1373  1413 1
  1518  1374  1413 1
  1519  1375  1414 1
  1520  1490  1499 1
  1521  1490  1524 1
  1522  1524  1530 1
  1523  1490  1533 1
  1524  1384  1388 1
  1525  1380  1384 1
  1526  1380  1418 1
  1527  1380  1419 1
  1528  1384  1389 1
  1529  1381  1385 1
  1530  1385  1413 1
  1531  1381  1391 1
  1532  1383  1387 1
  1533  1387  1414 1
  1534  1383  1390 1
  1535  1399  1433 1
  1536  1503  1506 1
  1537  1507  1509 1
  1538  1505  1508 1
  1539  1507  1515 1
  1540  1505  1512 1
  1541  1503  1505 1
  1542  1503  1507 1
  1543  1505  1511 1
  1544  1455  1459 1
  1545  1474  1482 1
  1546  1474  1485 1
  1547  1459  1463 1
  1548  1474  1480 1
  1549  1459  1465 1
  1550  1447  1462 1
  1551  1450  1467 1
  1552  1462  1467 1
  1553  1448  1464 1
  1554  1449  1463 1
  1555  1451  1468 1
  1556  1453  1458 1
  1557  1458  1468 1
  1558  1458  1462 1
  1559  1452  1466 1
  1560  1461  1468 1
  1561  1454  1461 1
  1562  1456  1465 1
  1563  1457  1461 1
  1564  1457  1467 1
  1565  1470  1472 1
  1566  1471  1472 1
  1567  1472  1478 1
  1568  1471  1477 1
  1569  1470  1476 1
  1570  1473  1476 1
  1571  1473  1479 1
  1572  1473  1481 1
  1573  1473  1483 1
  1574  1476  1484 1
  1575  1493  1502 1
  1576  1502  1534 1
  1577  1494  1502 1
  1578  1504  1506 1
  1579  1504  1509 1
  1580  1504  1510 1
  1581  1506  1513 1
  1582  1510  1517 1
  1583  1510  1521 1
  1584  1509  1519 1
  1585  1510  1516 1
  1586  1498  1523 1
  1587  1508  1514 1
  1588  1508  1520 1
  1589  1508  1518 1
  1590  1525  1535 1
  1591  1527  1535 1
  1592  1528  1536 1
