@<TRIPOS>MOLECULE
frame0003
 1536 1764 0 0 0
SMALL
NO_CHARGES

@<TRIPOS>ATOM
      1 Ti1         -2.8554     2.2298    11.2464 Ti        1 MOL       0.0000
      2 Ti2          7.9750     5.1110     1.8816 Ti        1 MOL       0.0000
      3 Ti3          1.2412    -1.7064     9.4264 Ti        1 MOL       0.0000
      4 Ti4          2.7524     7.4557     3.6534 Ti        1 MOL       0.0000
      5 Ti5          1.7539     9.1340     1.7490 Ti        1 MOL       0.0000
      6 Ti6          3.1294    -1.9608    11.3798 Ti        1 MOL       0.0000
      7 Ti7         -1.9062     0.4939     9.3549 Ti        1 MOL       0.0000
      8 Ti8          5.9872     5.4135     3.7290 Ti        1 MOL       0.0000
      9 H1          -2.3536     6.1269    11.0269 H         1 MOL       0.0000
     10 H2           8.7838     1.2049     2.2023 H         1 MOL       0.0000
     11 H3          -6.8153     1.4731    10.8640 H         1 MOL       0.0000
     12 H4          11.3572     7.1153     2.0822 H         1 MOL       0.0000
     13 H5           4.1051    -5.9953    10.9939 H         1 MOL       0.0000
     14 H6          -2.3047     8.5441     2.0711 H         1 MOL       0.0000
     15 H7          -2.3867     0.4312    12.9709 H         1 MOL       0.0000
     16 H8           6.0995     4.8683     0.1817 H         1 MOL       0.0000
     17 H9           3.6394    -2.6279     5.8687 H         1 MOL       0.0000
     18 H10          1.0290     9.2927     7.2723 H         1 MOL       0.0000
     19 H11         -5.9789     3.8825     8.9990 H         1 MOL       0.0000
     20 H12         10.7298     3.0266     4.1876 H         1 MOL       0.0000
     21 H13         -3.6778     2.4351     5.6652 H         1 MOL       0.0000
     22 H14         -1.3462    10.9619     4.1022 H         1 MOL       0.0000
     23 H15          2.1461    12.2368     2.6045 H         1 MOL       0.0000
     24 H16          8.6260    -0.8139     3.4048 H         1 MOL       0.0000
     25 H17          4.8451     7.1358     2.3148 H         1 MOL       0.0000
     26 H18          0.1606     0.1420    10.7200 H         1 MOL       0.0000
     27 H19          7.3642    -0.0259     9.7695 H         1 MOL       0.0000
     28 H20          5.8831    -0.4950    10.5168 H         1 MOL       0.0000
     29 H21          7.9383     4.4077     8.6706 H         1 MOL       0.0000
     30 H22          7.3686     4.7663     7.0520 H         1 MOL       0.0000
     31 H23          6.8754    -4.9808     9.5794 H         1 MOL       0.0000
     32 H24          5.5962    -3.8802    10.0368 H         1 MOL       0.0000
     33 C1           8.5531     4.3697     4.7451 C         1 MOL       0.0000
     34 C2          -3.8160     2.4911     8.3994 C         1 MOL       0.0000
     35 C3           3.8218    -2.7171     8.5017 C         1 MOL       0.0000
     36 C4           0.8163     9.4262     4.6128 C         1 MOL       0.0000
     37 C5           9.4491     3.7654     5.7403 C         1 MOL       0.0000
     38 C6          -4.7479     3.1162     7.4223 C         1 MOL       0.0000
     39 C7           4.7619    -3.3315     7.5545 C         1 MOL       0.0000
     40 C8          -0.0735    10.0730     5.6125 C         1 MOL       0.0000
     41 C9           9.2003     3.8403     7.1467 C         1 MOL       0.0000
     42 C10         -4.5315     2.9962     6.0343 C         1 MOL       0.0000
     43 C11          5.8914    -4.0918     8.0076 C         1 MOL       0.0000
     44 C12         -1.1682    10.8460     5.1676 C         1 MOL       0.0000
     45 C13          0.1810     9.9023     6.9674 C         1 MOL       0.0000
     46 C14          4.5142    -3.1993     6.1706 C         1 MOL       0.0000
     47 C15         10.5828     3.0664     5.2646 C         1 MOL       0.0000
     48 C16         -5.8480     3.8086     7.9210 C         1 MOL       0.0000
     49 C17          8.7648     1.2840     0.0582 C         1 MOL       0.0000
     50 C18          2.2951    13.0756     0.0832 C         1 MOL       0.0000
     51 C19          6.6143    -0.0189    13.0272 C         1 MOL       0.0000
     52 C20         -6.7440     1.5235    13.0078 C         1 MOL       0.0000
     53 C21          3.4992     5.1125     5.6180 C         1 MOL       0.0000
     54 C22         -1.2569    -1.9819     7.5361 C         1 MOL       0.0000
     55 C23          3.9940    -4.3272    13.1300 C         1 MOL       0.0000
     56 C24          2.2024    11.6421     0.0457 C         1 MOL       0.0000
     57 C25          5.3165    -0.6357    13.0740 C         1 MOL       0.0000
     58 C26         -5.3417     1.9379    13.0323 C         1 MOL       0.0000
     59 C27          8.8042     0.6149     1.2879 C         1 MOL       0.0000
     60 C28         -2.3426     6.7153    11.9408 C         1 MOL       0.0000
     61 C29         -4.0954     7.8789     1.0761 C         1 MOL       0.0000
     62 C30         -7.3768     1.2938    11.7793 C         1 MOL       0.0000
     63 C31          7.3089     0.2494    11.7938 C         1 MOL       0.0000
     64 C32         -2.8062     8.3591     1.1253 C         1 MOL       0.0000
     65 C33          4.1467    -6.5225    11.9429 C         1 MOL       0.0000
     66 C34          8.8259    -0.7862     1.3695 C         1 MOL       0.0000
     67 N1           8.8810    -1.3851     2.6076 N         1 MOL       0.0000
     68 N2           6.7299     0.0665    10.5548 N         1 MOL       0.0000
     69 N3           8.1195     4.4866     7.6780 N         1 MOL       0.0000
     70 N4           6.2224    -4.2500     9.3250 N         1 MOL       0.0000
     71 O1           7.3768     4.7748     5.1109 O         1 MOL       0.0000
     72 O2          -3.0470     1.5403     8.0011 O         1 MOL       0.0000
     73 O3           4.2032    -2.5927     9.7228 O         1 MOL       0.0000
     74 O4           0.7505     9.8559     3.4131 O         1 MOL       0.0000
     75 O5           1.5868     8.4690     4.9992 O         1 MOL       0.0000
     76 O6           2.6513    -2.3487     8.0962 O         1 MOL       0.0000
     77 O7           8.9650     4.4505     3.5334 O         1 MOL       0.0000
     78 O8          -3.8580     2.9274     9.5991 O         1 MOL       0.0000
     79 O9           6.2924     4.1956     2.5344 O         1 MOL       0.0000
     80 O10         -1.3538     2.0542    10.0994 O         1 MOL       0.0000
     81 O11          7.2312     6.4829     2.9843 O         1 MOL       0.0000
     82 O12         -3.1060     0.3295    10.5921 O         1 MOL       0.0000
     83 O13          1.5006    -2.8784    10.6868 O         1 MOL       0.0000
     84 O14          3.2690     9.0170     2.9149 O         1 MOL       0.0000
     85 O15          2.4545    -0.6169    10.2227 O         1 MOL       0.0000
     86 O16          1.5628     7.2599     2.3975 O         1 MOL       0.0000
     87 O17          4.7203     4.9326     5.2637 O         1 MOL       0.0000
     88 O18         -1.9146    -0.9469     7.9143 O         1 MOL       0.0000
     89 O19          3.8718    -3.7326    11.9889 O         1 MOL       0.0000
     90 O20          2.1193    10.9406     1.1409 O         1 MOL       0.0000
     91 O21          4.6739    -0.9445    11.9838 O         1 MOL       0.0000
     92 O22         -0.1167     9.1049     1.0808 O         1 MOL       0.0000
     93 O23         -0.0951    -2.2764     7.9939 O         1 MOL       0.0000
     94 O24          2.7573     6.0334     5.1246 O         1 MOL       0.0000
     95 O25          9.4121     6.1301     1.1270 O         1 MOL       0.0000
     96 O26         -4.7422     2.1697    11.9148 O         1 MOL       0.0000
     97 O27          8.6166     3.3758     1.1564 O         1 MOL       0.0000
     98 O28         -2.4740     3.9521    11.9961 O         1 MOL       0.0000
     99 O29          4.4842     6.5871     3.0354 O         1 MOL       0.0000
    100 O30         -0.2177    -0.4167    10.0165 O         1 MOL       0.0000
    101 O31          6.9383     5.3620     0.1026 O         1 MOL       0.0000
    102 O32         -2.2643     1.3980    13.0309 O         1 MOL       0.0000
    103 H25          3.7000     1.4620     8.5200 H         1 MOL       0.0000
    104 H26         -6.6048    10.6149     6.1098 H         1 MOL       0.0000
    105 H27          4.4541    10.2150     5.5806 H         1 MOL       0.0000
    106 H28          4.6976     3.0052     6.8039 H         1 MOL       0.0000
    107 H29          0.0428     3.7281     8.4311 H         1 MOL       0.0000
    108 H30         12.1307    -2.6504     7.0132 H         1 MOL       0.0000
    109 H31          1.3734     1.8303     9.2950 H         1 MOL       0.0000
    110 H32          1.0406     5.2681     6.7090 H         1 MOL       0.0000
    111 H33          5.7895     8.4449     4.4644 H         1 MOL       0.0000
    112 H34          8.2453     8.3509     4.7499 H         1 MOL       0.0000
    113 C35          2.9225     4.2185     6.6497 C         1 MOL       0.0000
    114 C36          1.8124     2.5046     8.5617 C         1 MOL       0.0000
    115 C37          6.2877     9.1856     5.0888 C         1 MOL       0.0000
    116 C38         -1.9135    -2.9461     6.6199 C         1 MOL       0.0000
    117 C39          1.6084     4.4308     7.1097 C         1 MOL       0.0000
    118 C40          3.1261     2.2964     8.1196 C         1 MOL       0.0000
    119 C41          5.5354    10.1917     5.7072 C         1 MOL       0.0000
    120 C42         -7.6807    10.6472     5.9502 C         1 MOL       0.0000
    121 C43          7.6778     9.1372     5.2454 C         1 MOL       0.0000
    122 C44         12.6920    -3.4469     6.5299 C         1 MOL       0.0000
    123 C45          3.6825     3.1513     7.1675 C         1 MOL       0.0000
    124 C46          1.0574     3.5756     8.0653 C         1 MOL       0.0000
    125 N5           5.6354    10.9460     1.2821 N         1 MOL       0.0000
    126 N6           2.1360     2.7745    12.8703 N         1 MOL       0.0000
    127 C47          5.3883    11.5377     0.0543 C         1 MOL       0.0000
    128 C48          1.4468     3.7710    12.2020 C         1 MOL       0.0000
    129 C49          4.3954     2.7193    11.8721 C         1 MOL       0.0000
    130 C50          5.1813    11.4757     2.5786 C         1 MOL       0.0000
    131 C51          6.4980     9.9310     1.0917 C         1 MOL       0.0000
    132 C52          3.1678     1.9065    12.2754 C         1 MOL       0.0000
    133 H35          0.1568     5.3686    13.0520 H         1 MOL       0.0000
    134 H36          1.5188     3.9134    11.1318 H         1 MOL       0.0000
    135 H37          4.1344     3.5168    11.1645 H         1 MOL       0.0000
    136 H38          4.7723    12.4800     2.4342 H         1 MOL       0.0000
    137 H39          4.8598     3.1908    12.7455 H         1 MOL       0.0000
    138 H40          4.4905    10.7816     3.0463 H         1 MOL       0.0000
    139 H41          5.1314     2.0575    11.3983 H         1 MOL       0.0000
    140 H42          2.7256     1.3886    11.4160 H         1 MOL       0.0000
    141 H43          6.0361    11.5753     3.2505 H         1 MOL       0.0000
    142 H44          6.9672     9.3392     1.8667 H         1 MOL       0.0000
    143 H45          3.4039     1.1456    13.0269 H         1 MOL       0.0000
    144 N7          13.6450    -0.2234     0.2611 N         1 MOL       0.0000
    145 C53          0.4176     0.3389     1.6727 C         1 MOL       0.0000
    146 C54          9.6014    -5.7948    11.1720 C         1 MOL       0.0000
    147 O33         13.7909    -0.6088     2.7442 O         1 MOL       0.0000
    148 O34          8.3237    12.1392     1.1534 O         1 MOL       0.0000
    149 O35          1.3270     6.8528    11.0402 O         1 MOL       0.0000
    150 O36          3.8268     5.9374    11.2528 O         1 MOL       0.0000
    151 F1           0.1547     1.7998     1.9017 F         1 MOL       0.0000
    152 F2          10.7385    -5.1512    11.8095 F         1 MOL       0.0000
    153 F3           1.1077     0.2530     0.5195 F         1 MOL       0.0000
    154 F4           0.6202    -0.1615     3.0220 F         1 MOL       0.0000
    155 F5           8.6642    -4.9089    11.1647 F         1 MOL       0.0000
    156 F6           3.3567     8.6993     9.5110 F         1 MOL       0.0000
    157 S1          14.4028    -1.0282     1.4537 S         1 MOL       0.0000
    158 S2           2.6188     7.0135    11.6221 S         1 MOL       0.0000
    159 N8           2.9976     1.3989     3.0975 N         1 MOL       0.0000
    160 N9           1.0896     2.0304     3.9873 N         1 MOL       0.0000
    161 C55          4.0091     1.1321     2.0529 C         1 MOL       0.0000
    162 C56          1.9071     2.1713     2.9157 C         1 MOL       0.0000
    163 C57          2.9511     0.8923     4.3851 C         1 MOL       0.0000
    164 C58          3.7781    -0.2139     1.3675 C         1 MOL       0.0000
    165 C59          1.7590     1.2744     4.9363 C         1 MOL       0.0000
    166 C60         -0.3192     2.4532     4.0873 C         1 MOL       0.0000
    167 H46          4.9730     1.1574     2.5722 H         1 MOL       0.0000
    168 H47          3.9809     1.9663     1.3399 H         1 MOL       0.0000
    169 H48          1.6249     2.5892     1.9543 H         1 MOL       0.0000
    170 H49          4.6180    -0.4362     0.6969 H         1 MOL       0.0000
    171 H50          3.7816     0.3248     4.7737 H         1 MOL       0.0000
    172 H51         -0.4242     3.1633     4.9097 H         1 MOL       0.0000
    173 H52         -0.6103     2.9443     3.1536 H         1 MOL       0.0000
    174 H53          3.6622    -1.0352     2.0850 H         1 MOL       0.0000
    175 H54          1.3393     1.0748     5.9120 H         1 MOL       0.0000
    176 H55          2.8923    -0.1908     0.7287 H         1 MOL       0.0000
    177 H56         -0.9768     1.5799     4.2125 H         1 MOL       0.0000
    178 N10         -0.5393     0.5377     1.4924 N         1 MOL       0.0000
    179 C61          7.6770    12.5851     2.7332 C         1 MOL       0.0000
    180 C62          9.7322    -6.6715    12.2458 C         1 MOL       0.0000
    181 O37          0.1569     2.7431     0.3581 O         1 MOL       0.0000
    182 O38          1.0106    -1.3563     3.0600 O         1 MOL       0.0000
    183 O39         -3.6514    -6.3175    12.2127 O         1 MOL       0.0000
    184 O40          9.7183    12.0936     0.7862 O         1 MOL       0.0000
    185 F7          13.9658    -1.5591     4.0811 F         1 MOL       0.0000
    186 F8           8.5704    -6.0278    12.8595 F         1 MOL       0.0000
    187 F9           6.6312    12.8551     1.7889 F         1 MOL       0.0000
    188 F10          7.6340    11.2257     3.0006 F         1 MOL       0.0000
    189 F11         10.2168    -6.2777    10.8674 F         1 MOL       0.0000
    190 F12          3.0564     6.2656    12.1999 F         1 MOL       0.0000
    191 S3          -0.0199     1.2898     0.1045 S         1 MOL       0.0000
    192 S4          -6.5609    13.5152     1.8877 S         1 MOL       0.0000
    193 Ti9         -7.4904    -4.8362    24.3414 Ti        1 MOL       0.0000
    194 Ti10         3.3400    -1.9550    14.9766 Ti        1 MOL       0.0000
    195 Ti11        -3.3938    -8.7724    22.5214 Ti        1 MOL       0.0000
    196 Ti12        -1.8826     0.3897    16.7484 Ti        1 MOL       0.0000
    197 Ti13        -2.8811     2.0680    14.8440 Ti        1 MOL       0.0000
    198 Ti14        -1.5056    -9.0268    24.4748 Ti        1 MOL       0.0000
    199 Ti15        -6.5412    -6.5721    22.4499 Ti        1 MOL       0.0000
    200 Ti16         1.3522    -1.6525    16.8240 Ti        1 MOL       0.0000
    201 H57         -6.9886    -0.9391    24.1219 H         1 MOL       0.0000
    202 H58          4.1488    -5.8611    15.2973 H         1 MOL       0.0000
    203 H59        -11.4503    -5.5929    23.9590 H         1 MOL       0.0000
    204 H60          6.7222     0.0493    15.1772 H         1 MOL       0.0000
    205 H61         -0.5299   -13.0613    24.0889 H         1 MOL       0.0000
    206 H62         -6.9397     1.4781    15.1661 H         1 MOL       0.0000
    207 H63         -7.0217    -6.6348    26.0659 H         1 MOL       0.0000
    208 H64          1.4645    -2.1977    13.2767 H         1 MOL       0.0000
    209 H65         -0.9956    -9.6939    18.9637 H         1 MOL       0.0000
    210 H66         -3.6060     2.2267    20.3673 H         1 MOL       0.0000
    211 H67        -10.6139    -3.1835    22.0940 H         1 MOL       0.0000
    212 H68          6.0948    -4.0393    17.2826 H         1 MOL       0.0000
    213 H69         -8.3127    -4.6309    18.7602 H         1 MOL       0.0000
    214 H70         -5.9812     3.8959    17.1972 H         1 MOL       0.0000
    215 H71         -2.4889     5.1708    15.6995 H         1 MOL       0.0000
    216 H72          3.9910    -7.8799    16.4998 H         1 MOL       0.0000
    217 H73          0.2101     0.0698    15.4098 H         1 MOL       0.0000
    218 H74         -4.4744    -6.9240    23.8150 H         1 MOL       0.0000
    219 H75          2.7292    -7.0919    22.8645 H         1 MOL       0.0000
    220 H76          1.2481    -7.5610    23.6118 H         1 MOL       0.0000
    221 H77          3.3033    -2.6583    21.7655 H         1 MOL       0.0000
    222 H78          2.7336    -2.2997    20.1470 H         1 MOL       0.0000
    223 H79          2.2404   -12.0468    22.6744 H         1 MOL       0.0000
    224 H80          0.9612   -10.9462    23.1318 H         1 MOL       0.0000
    225 C63          3.9181    -2.6963    17.8401 C         1 MOL       0.0000
    226 C64         -8.4510    -4.5749    21.4944 C         1 MOL       0.0000
    227 C65         -0.8132    -9.7831    21.5967 C         1 MOL       0.0000
    228 C66         -3.8187     2.3602    17.7078 C         1 MOL       0.0000
    229 C67          4.8141    -3.3006    18.8353 C         1 MOL       0.0000
    230 C68         -9.3829    -3.9498    20.5173 C         1 MOL       0.0000
    231 C69          0.1269   -10.3975    20.6495 C         1 MOL       0.0000
    232 C70         -4.7085     3.0070    18.7075 C         1 MOL       0.0000
    233 C71          4.5653    -3.2257    20.2417 C         1 MOL       0.0000
    234 C72         -9.1665    -4.0698    19.1293 C         1 MOL       0.0000
    235 C73          1.2564   -11.1578    21.1026 C         1 MOL       0.0000
    236 C74         -5.8032     3.7800    18.2626 C         1 MOL       0.0000
    237 C75         -4.4540     2.8362    20.0624 C         1 MOL       0.0000
    238 C76         -0.1208   -10.2653    19.2656 C         1 MOL       0.0000
    239 C77          5.9478    -3.9996    18.3596 C         1 MOL       0.0000
    240 C78        -10.4831    -3.2574    21.0160 C         1 MOL       0.0000
    241 C79          4.1298    -5.7820    13.1532 C         1 MOL       0.0000
    242 C80         -2.3399     6.0096    13.1782 C         1 MOL       0.0000
    243 C81          1.9793    -7.0849    26.1222 C         1 MOL       0.0000
    244 C82        -11.3790    -5.5425    26.1028 C         1 MOL       0.0000
    245 C83         -1.1358    -1.9535    18.7130 C         1 MOL       0.0000
    246 C84         -5.8919    -9.0479    20.6311 C         1 MOL       0.0000
    247 C85         -0.6410   -11.3932    26.2250 C         1 MOL       0.0000
    248 C86         -2.4326     4.5761    13.1407 C         1 MOL       0.0000
    249 C87          0.6815    -7.7017    26.1690 C         1 MOL       0.0000
    250 C88         -9.9767    -5.1281    26.1273 C         1 MOL       0.0000
    251 C89          4.1692    -6.4511    14.3829 C         1 MOL       0.0000
    252 C90         -6.9776    -0.3507    25.0358 C         1 MOL       0.0000
    253 C91         -8.7304     0.8129    14.1711 C         1 MOL       0.0000
    254 C92        -12.0118    -5.7722    24.8743 C         1 MOL       0.0000
    255 C93          2.6739    -6.8166    24.8888 C         1 MOL       0.0000
    256 C94         -7.4412     1.2931    14.2203 C         1 MOL       0.0000
    257 C95         -0.4883   -13.5885    25.0379 C         1 MOL       0.0000
    258 C96          4.1909    -7.8522    14.4645 C         1 MOL       0.0000
    259 N11          4.2460    -8.4511    15.7026 N         1 MOL       0.0000
    260 N12          2.0949    -6.9995    23.6498 N         1 MOL       0.0000
    261 N13          3.4845    -2.5794    20.7730 N         1 MOL       0.0000
    262 N14          1.5874   -11.3160    22.4200 N         1 MOL       0.0000
    263 O41          2.7418    -2.2912    18.2059 O         1 MOL       0.0000
    264 O42         -7.6820    -5.5257    21.0961 O         1 MOL       0.0000
    265 O43         -0.4318    -9.6587    22.8178 O         1 MOL       0.0000
    266 O44         -3.8845     2.7899    16.5082 O         1 MOL       0.0000
    267 O45         -3.0482     1.4030    18.0942 O         1 MOL       0.0000
    268 O46         -1.9837    -9.4147    21.1912 O         1 MOL       0.0000
    269 O47          4.3300    -2.6155    16.6284 O         1 MOL       0.0000
    270 O48         -8.4930    -4.1386    22.6941 O         1 MOL       0.0000
    271 O49          1.6574    -2.8704    15.6294 O         1 MOL       0.0000
    272 O50         -5.9888    -5.0118    23.1944 O         1 MOL       0.0000
    273 O51          2.5962    -0.5831    16.0793 O         1 MOL       0.0000
    274 O52         -7.7410    -6.7365    23.6871 O         1 MOL       0.0000
    275 O53         -3.1344    -9.9444    23.7818 O         1 MOL       0.0000
    276 O54         -1.3660     1.9510    16.0099 O         1 MOL       0.0000
    277 O55         -2.1805    -7.6829    23.3177 O         1 MOL       0.0000
    278 O56         -3.0722     0.1939    15.4925 O         1 MOL       0.0000
    279 O57          0.0853    -2.1334    18.3587 O         1 MOL       0.0000
    280 O58         -6.5496    -8.0129    21.0093 O         1 MOL       0.0000
    281 O59         -0.7632   -10.7986    25.0839 O         1 MOL       0.0000
    282 O60         -2.5157     3.8746    14.2359 O         1 MOL       0.0000
    283 O61          0.0389    -8.0105    25.0788 O         1 MOL       0.0000
    284 O62         -4.7517     2.0389    14.1758 O         1 MOL       0.0000
    285 O63         -4.7301    -9.3424    21.0889 O         1 MOL       0.0000
    286 O64         -1.8777    -1.0326    18.2196 O         1 MOL       0.0000
    287 O65          4.7771    -0.9359    14.2220 O         1 MOL       0.0000
    288 O66         -9.3772    -4.8963    25.0098 O         1 MOL       0.0000
    289 O67          3.9816    -3.6902    14.2514 O         1 MOL       0.0000
    290 O68         -7.1090    -3.1139    25.0911 O         1 MOL       0.0000
    291 O69         -0.1508    -0.4789    16.1304 O         1 MOL       0.0000
    292 O70         -4.8527    -7.4827    23.1115 O         1 MOL       0.0000
    293 O71          2.3033    -1.7041    13.1976 O         1 MOL       0.0000
    294 O72         -6.8993    -5.6680    26.1259 O         1 MOL       0.0000
    295 H81         -0.9350    -5.6040    21.6150 H         1 MOL       0.0000
    296 H82        -11.2398     3.5489    19.2048 H         1 MOL       0.0000
    297 H83         -0.1809     3.1490    18.6756 H         1 MOL       0.0000
    298 H84          0.0626    -4.0608    19.8989 H         1 MOL       0.0000
    299 H85         -4.5922    -3.3379    21.5261 H         1 MOL       0.0000
    300 H86          7.4957    -9.7164    20.1082 H         1 MOL       0.0000
    301 H87         -3.2616    -5.2357    22.3900 H         1 MOL       0.0000
    302 H88         -3.5944    -1.7979    19.8040 H         1 MOL       0.0000
    303 H89          1.1545     1.3789    17.5594 H         1 MOL       0.0000
    304 H90          3.6103     1.2849    17.8449 H         1 MOL       0.0000
    305 C97         -1.7125    -2.8475    19.7447 C         1 MOL       0.0000
    306 C98         -2.8226    -4.5614    21.6567 C         1 MOL       0.0000
    307 C99          1.6527     2.1196    18.1838 C         1 MOL       0.0000
    308 C100        -6.5485   -10.0121    19.7149 C         1 MOL       0.0000
    309 C101        -3.0266    -2.6352    20.2047 C         1 MOL       0.0000
    310 C102        -1.5089    -4.7696    21.2146 C         1 MOL       0.0000
    311 C103         0.9004     3.1257    18.8022 C         1 MOL       0.0000
    312 C104       -12.3157     3.5812    19.0452 C         1 MOL       0.0000
    313 C105         3.0428     2.0712    18.3404 C         1 MOL       0.0000
    314 C106         8.0570   -10.5129    19.6249 C         1 MOL       0.0000
    315 C107        -0.9525    -3.9147    20.2625 C         1 MOL       0.0000
    316 C108        -3.5776    -3.4904    21.1603 C         1 MOL       0.0000
    317 N15          1.0004     3.8800    14.3771 N         1 MOL       0.0000
    318 N16         -2.4990    -4.2915    25.9653 N         1 MOL       0.0000
    319 C109         0.7533     4.4717    13.1493 C         1 MOL       0.0000
    320 C110        -3.1882    -3.2950    25.2970 C         1 MOL       0.0000
    321 C111        -0.2396    -4.3467    24.9671 C         1 MOL       0.0000
    322 C112         0.5463     4.4097    15.6736 C         1 MOL       0.0000
    323 C113         1.8630     2.8650    14.1867 C         1 MOL       0.0000
    324 C114        -1.4672    -5.1595    25.3704 C         1 MOL       0.0000
    325 H91         -4.4782    -1.6974    26.1470 H         1 MOL       0.0000
    326 H92         -3.1162    -3.1526    24.2268 H         1 MOL       0.0000
    327 H93         -0.5006    -3.5492    24.2595 H         1 MOL       0.0000
    328 H94          0.1373     5.4140    15.5292 H         1 MOL       0.0000
    329 H95          0.2248    -3.8752    25.8405 H         1 MOL       0.0000
    330 H96         -0.1445     3.7156    16.1413 H         1 MOL       0.0000
    331 H97          0.4964    -5.0085    24.4933 H         1 MOL       0.0000
    332 H98         -1.9094    -5.6774    24.5110 H         1 MOL       0.0000
    333 H99          1.4011     4.5093    16.3455 H         1 MOL       0.0000
    334 H100         2.3322     2.2732    14.9617 H         1 MOL       0.0000
    335 H101        -1.2311    -5.9204    26.1219 H         1 MOL       0.0000
    336 N17          9.0100    -7.2894    13.3561 N         1 MOL       0.0000
    337 C115        -4.2174    -6.7271    14.7677 C         1 MOL       0.0000
    338 C116         4.9664   -12.8608    24.2670 C         1 MOL       0.0000
    339 O73          9.1559    -7.6748    15.8392 O         1 MOL       0.0000
    340 O74          3.6887     5.0732    14.2484 O         1 MOL       0.0000
    341 O75         -3.3080    -0.2132    24.1352 O         1 MOL       0.0000
    342 O76         -0.8082    -1.1286    24.3478 O         1 MOL       0.0000
    343 F13         -4.4803    -5.2662    14.9967 F         1 MOL       0.0000
    344 F14          6.1035   -12.2172    24.9045 F         1 MOL       0.0000
    345 F15         -3.5273    -6.8130    13.6145 F         1 MOL       0.0000
    346 F16         -4.0148    -7.2275    16.1170 F         1 MOL       0.0000
    347 F17          4.0292   -11.9749    24.2597 F         1 MOL       0.0000
    348 F18         -1.2783     1.6333    22.6060 F         1 MOL       0.0000
    349 S5           9.7678    -8.0942    14.5487 S         1 MOL       0.0000
    350 S6          -2.0162    -0.0525    24.7171 S         1 MOL       0.0000
    351 N18         -1.6374    -5.6671    16.1925 N         1 MOL       0.0000
    352 N19         -3.5454    -5.0356    17.0823 N         1 MOL       0.0000
    353 C117        -0.6259    -5.9339    15.1479 C         1 MOL       0.0000
    354 C118        -2.7279    -4.8947    16.0107 C         1 MOL       0.0000
    355 C119        -1.6839    -6.1737    17.4801 C         1 MOL       0.0000
    356 C120        -0.8569    -7.2799    14.4625 C         1 MOL       0.0000
    357 C121        -2.8760    -5.7916    18.0313 C         1 MOL       0.0000
    358 C122        -4.9542    -4.6128    17.1823 C         1 MOL       0.0000
    359 H102         0.3380    -5.9086    15.6672 H         1 MOL       0.0000
    360 H103        -0.6541    -5.0997    14.4349 H         1 MOL       0.0000
    361 H104        -3.0101    -4.4768    15.0493 H         1 MOL       0.0000
    362 H105        -0.0170    -7.5022    13.7919 H         1 MOL       0.0000
    363 H106        -0.8534    -6.7412    17.8687 H         1 MOL       0.0000
    364 H107        -5.0592    -3.9027    18.0047 H         1 MOL       0.0000
    365 H108        -5.2453    -4.1217    16.2486 H         1 MOL       0.0000
    366 H109        -0.9728    -8.1012    15.1800 H         1 MOL       0.0000
    367 H110        -3.2957    -5.9912    19.0070 H         1 MOL       0.0000
    368 H111        -1.7427    -7.2568    13.8237 H         1 MOL       0.0000
    369 H112        -5.6118    -5.4861    17.3075 H         1 MOL       0.0000
    370 N20         -5.1743    -6.5283    14.5874 N         1 MOL       0.0000
    371 C123         3.0420     5.5191    15.8282 C         1 MOL       0.0000
    372 C124         5.0972   -13.7375    25.3408 C         1 MOL       0.0000
    373 O77         -4.4781    -4.3229    13.4531 O         1 MOL       0.0000
    374 O78         -3.6244    -8.4223    16.1550 O         1 MOL       0.0000
    375 O79         -8.2864   -13.3835    25.3077 O         1 MOL       0.0000
    376 O80          5.0833     5.0276    13.8812 O         1 MOL       0.0000
    377 F19          9.3308    -8.6251    17.1761 F         1 MOL       0.0000
    378 F20          3.9354   -13.0938    25.9545 F         1 MOL       0.0000
    379 F21          1.9962     5.7891    14.8839 F         1 MOL       0.0000
    380 F22          2.9990     4.1597    16.0956 F         1 MOL       0.0000
    381 F23          5.5818   -13.3437    23.9624 F         1 MOL       0.0000
    382 F24         -1.5786    -0.8004    25.2949 F         1 MOL       0.0000
    383 S7          -4.6549    -5.7762    13.1995 S         1 MOL       0.0000
    384 S8         -11.1959     6.4492    14.9827 S         1 MOL       0.0000
    385 Ti17        -9.3724    16.8428    11.1894 Ti        1 MOL       0.0000
    386 Ti18         1.4580    19.7240     1.8246 Ti        1 MOL       0.0000
    387 Ti19        -5.2758    12.9066     9.3694 Ti        1 MOL       0.0000
    388 Ti20        -3.7646    22.0687     3.5964 Ti        1 MOL       0.0000
    389 Ti21        -4.7631    23.7470     1.6920 Ti        1 MOL       0.0000
    390 Ti22        -3.3876    12.6522    11.3228 Ti        1 MOL       0.0000
    391 Ti23        -8.4232    15.1069     9.2979 Ti        1 MOL       0.0000
    392 Ti24        -0.5298    20.0265     3.6721 Ti        1 MOL       0.0000
    393 H113        -8.8706    20.7399    10.9699 H         1 MOL       0.0000
    394 H114         2.2668    15.8179     2.1453 H         1 MOL       0.0000
    395 H115       -13.3323    16.0861    10.8070 H         1 MOL       0.0000
    396 H116         4.8402    21.7283     2.0252 H         1 MOL       0.0000
    397 H117        -2.4119     8.6177    10.9369 H         1 MOL       0.0000
    398 H118        -8.8217    23.1571     2.0141 H         1 MOL       0.0000
    399 H119        -8.9037    15.0442    12.9139 H         1 MOL       0.0000
    400 H120        -0.4175    19.4813     0.1247 H         1 MOL       0.0000
    401 H121        -2.8776    11.9851     5.8117 H         1 MOL       0.0000
    402 H122        -5.4880    23.9057     7.2153 H         1 MOL       0.0000
    403 H123       -12.4959    18.4955     8.9420 H         1 MOL       0.0000
    404 H124         4.2128    17.6396     4.1306 H         1 MOL       0.0000
    405 H125       -10.1948    17.0481     5.6082 H         1 MOL       0.0000
    406 H126        -7.8632    25.5749     4.0452 H         1 MOL       0.0000
    407 H127        -4.3709    26.8498     2.5475 H         1 MOL       0.0000
    408 H128         2.1090    13.7991     3.3478 H         1 MOL       0.0000
    409 H129        -1.6719    21.7488     2.2578 H         1 MOL       0.0000
    410 H130        -6.3565    14.7550    10.6630 H         1 MOL       0.0000
    411 H131         0.8472    14.5871     9.7125 H         1 MOL       0.0000
    412 H132        -0.6339    14.1180    10.4598 H         1 MOL       0.0000
    413 H133         1.4213    19.0207     8.6136 H         1 MOL       0.0000
    414 H134         0.8516    19.3793     6.9950 H         1 MOL       0.0000
    415 H135         0.3584     9.6322     9.5224 H         1 MOL       0.0000
    416 H136        -0.9208    10.7328     9.9798 H         1 MOL       0.0000
    417 C125         2.0361    18.9827     4.6881 C         1 MOL       0.0000
    418 C126       -10.3330    17.1042     8.3424 C         1 MOL       0.0000
    419 C127        -2.6952    11.8959     8.4447 C         1 MOL       0.0000
    420 C128        -5.7007    24.0392     4.5557 C         1 MOL       0.0000
    421 C129         2.9321    18.3784     5.6833 C         1 MOL       0.0000
    422 C130       -11.2649    17.7292     7.3653 C         1 MOL       0.0000
    423 C131        -1.7550    11.2815     7.4975 C         1 MOL       0.0000
    424 C132        -6.5905    24.6860     5.5555 C         1 MOL       0.0000
    425 C133         2.6833    18.4533     7.0897 C         1 MOL       0.0000
    426 C134       -11.0485    17.6092     5.9773 C         1 MOL       0.0000
    427 C135        -0.6256    10.5212     7.9506 C         1 MOL       0.0000
    428 C136        -7.6852    25.4590     5.1106 C         1 MOL       0.0000
    429 C137        -6.3360    24.5152     6.9104 C         1 MOL       0.0000
    430 C138        -2.0028    11.4136     6.1136 C         1 MOL       0.0000
    431 C139         4.0658    17.6794     5.2076 C         1 MOL       0.0000
    432 C140       -12.3651    18.4216     7.8640 C         1 MOL       0.0000
    433 C141         2.2478    15.8970     0.0012 C         1 MOL       0.0000
    434 C142        -4.2219    27.6886     0.0262 C         1 MOL       0.0000
    435 C143         0.0973    14.5941    12.9702 C         1 MOL       0.0000
    436 C144       -13.2610    16.1365    12.9508 C         1 MOL       0.0000
    437 C145        -3.0178    19.7255     5.5610 C         1 MOL       0.0000
    438 C146        -7.7739    12.6311     7.4791 C         1 MOL       0.0000
    439 C147        -2.5230    10.2858    13.0730 C         1 MOL       0.0000
    440 C148        -4.3146    26.2551    -0.0113 C         1 MOL       0.0000
    441 C149        -1.2006    13.9773    13.0170 C         1 MOL       0.0000
    442 C150       -11.8587    16.5509    12.9753 C         1 MOL       0.0000
    443 C151         2.2872    15.2279     1.2309 C         1 MOL       0.0000
    444 C152        -8.8596    21.3283    11.8838 C         1 MOL       0.0000
    445 C153       -10.6124    22.4919     1.0191 C         1 MOL       0.0000
    446 C154       -13.8938    15.9068    11.7223 C         1 MOL       0.0000
    447 C155         0.7919    14.8624    11.7368 C         1 MOL       0.0000
    448 C156        -9.3232    22.9721     1.0683 C         1 MOL       0.0000
    449 C157        -2.3703     8.0905    11.8859 C         1 MOL       0.0000
    450 C158         2.3089    13.8268     1.3125 C         1 MOL       0.0000
    451 N21          2.3640    13.2279     2.5506 N         1 MOL       0.0000
    452 N22          0.2129    14.6795    10.4978 N         1 MOL       0.0000
    453 N23          1.6025    19.0996     7.6210 N         1 MOL       0.0000
    454 N24         -0.2946    10.3630     9.2680 N         1 MOL       0.0000
    455 O81          0.8598    19.3878     5.0539 O         1 MOL       0.0000
    456 O82         -9.5640    16.1533     7.9441 O         1 MOL       0.0000
    457 O83         -2.3138    12.0203     9.6658 O         1 MOL       0.0000
    458 O84         -5.7665    24.4689     3.3561 O         1 MOL       0.0000
    459 O85         -4.9302    23.0820     4.9422 O         1 MOL       0.0000
    460 O86         -3.8657    12.2643     8.0392 O         1 MOL       0.0000
    461 O87          2.4480    19.0635     3.4764 O         1 MOL       0.0000
    462 O88        -10.3750    17.5404     9.5421 O         1 MOL       0.0000
    463 O89         -0.2246    18.8086     2.4774 O         1 MOL       0.0000
    464 O90         -7.8708    16.6672    10.0424 O         1 MOL       0.0000
    465 O91          0.7142    21.0959     2.9273 O         1 MOL       0.0000
    466 O92         -9.6230    14.9425    10.5351 O         1 MOL       0.0000
    467 O93         -5.0164    11.7346    10.6298 O         1 MOL       0.0000
    468 O94         -3.2480    23.6300     2.8579 O         1 MOL       0.0000
    469 O95         -4.0625    13.9961    10.1657 O         1 MOL       0.0000
    470 O96         -4.9542    21.8729     2.3405 O         1 MOL       0.0000
    471 O97         -1.7967    19.5457     5.2067 O         1 MOL       0.0000
    472 O98         -8.4316    13.6661     7.8573 O         1 MOL       0.0000
    473 O99         -2.6452    10.8804    11.9319 O         1 MOL       0.0000
    474 O100        -4.3977    25.5536     1.0839 O         1 MOL       0.0000
    475 O101        -1.8431    13.6685    11.9268 O         1 MOL       0.0000
    476 O102        -6.6337    23.7179     1.0238 O         1 MOL       0.0000
    477 O103        -6.6121    12.3366     7.9369 O         1 MOL       0.0000
    478 O104        -3.7597    20.6464     5.0676 O         1 MOL       0.0000
    479 O105         2.8951    20.7431     1.0700 O         1 MOL       0.0000
    480 O106       -11.2592    16.7827    11.8578 O         1 MOL       0.0000
    481 O107         2.0995    17.9888     1.0994 O         1 MOL       0.0000
    482 O108        -8.9910    18.5650    11.9391 O         1 MOL       0.0000
    483 O109        -2.0328    21.2001     2.9784 O         1 MOL       0.0000
    484 O110        -6.7347    14.1963     9.9595 O         1 MOL       0.0000
    485 O111         0.4213    19.9749     0.0456 O         1 MOL       0.0000
    486 O112        -8.7813    16.0110    12.9739 O         1 MOL       0.0000
    487 H137        -2.8170    16.0750     8.4630 H         1 MOL       0.0000
    488 H138       -13.1218    25.2279     6.0528 H         1 MOL       0.0000
    489 H139        -2.0629    24.8280     5.5236 H         1 MOL       0.0000
    490 H140        -1.8194    17.6182     6.7469 H         1 MOL       0.0000
    491 H141        -6.4742    18.3411     8.3741 H         1 MOL       0.0000
    492 H142         5.6137    11.9626     6.9562 H         1 MOL       0.0000
    493 H143        -5.1436    16.4433     9.2380 H         1 MOL       0.0000
    494 H144        -5.4764    19.8811     6.6520 H         1 MOL       0.0000
    495 H145        -0.7275    23.0579     4.4074 H         1 MOL       0.0000
    496 H146         1.7283    22.9639     4.6929 H         1 MOL       0.0000
    497 C159        -3.5945    18.8315     6.5927 C         1 MOL       0.0000
    498 C160        -4.7046    17.1176     8.5047 C         1 MOL       0.0000
    499 C161        -0.2293    23.7986     5.0318 C         1 MOL       0.0000
    500 C162        -8.4305    11.6669     6.5629 C         1 MOL       0.0000
    501 C163        -4.9086    19.0438     7.0527 C         1 MOL       0.0000
    502 C164        -3.3909    16.9094     8.0626 C         1 MOL       0.0000
    503 C165        -0.9816    24.8047     5.6502 C         1 MOL       0.0000
    504 C166       -14.1977    25.2602     5.8932 C         1 MOL       0.0000
    505 C167         1.1608    23.7502     5.1884 C         1 MOL       0.0000
    506 C168         6.1750    11.1661     6.4729 C         1 MOL       0.0000
    507 C169        -2.8345    17.7643     7.1105 C         1 MOL       0.0000
    508 C170        -5.4596    18.1886     8.0083 C         1 MOL       0.0000
    509 N25         -0.8816    25.5590     1.2251 N         1 MOL       0.0000
    510 N26         -4.3810    17.3875    12.8133 N         1 MOL       0.0000
    511 C171        -1.1287    26.1507    -0.0027 C         1 MOL       0.0000
    512 C172        -5.0702    18.3840    12.1450 C         1 MOL       0.0000
    513 C173        -2.1216    17.3323    11.8151 C         1 MOL       0.0000
    514 C174        -1.3357    26.0887     2.5216 C         1 MOL       0.0000
    515 C175        -0.0190    24.5440     1.0347 C         1 MOL       0.0000
    516 C176        -3.3492    16.5195    12.2184 C         1 MOL       0.0000
    517 H147        -6.3602    19.9816    12.9950 H         1 MOL       0.0000
    518 H148        -4.9982    18.5264    11.0748 H         1 MOL       0.0000
    519 H149        -2.3826    18.1298    11.1075 H         1 MOL       0.0000
    520 H150        -1.7447    27.0930     2.3772 H         1 MOL       0.0000
    521 H151        -1.6572    17.8038    12.6885 H         1 MOL       0.0000
    522 H152        -2.0265    25.3946     2.9893 H         1 MOL       0.0000
    523 H153        -1.3856    16.6705    11.3413 H         1 MOL       0.0000
    524 H154        -3.7914    16.0016    11.3590 H         1 MOL       0.0000
    525 H155        -0.4809    26.1883     3.1935 H         1 MOL       0.0000
    526 H156         0.4502    23.9522     1.8097 H         1 MOL       0.0000
    527 H157        -3.1131    15.7586    12.9699 H         1 MOL       0.0000
    528 N27          7.1280    14.3896     0.2041 N         1 MOL       0.0000
    529 C177        -6.0994    14.9519     1.6157 C         1 MOL       0.0000
    530 C178         3.0844     8.8182    11.1150 C         1 MOL       0.0000
    531 O113         7.2739    14.0042     2.6872 O         1 MOL       0.0000
    532 O114         1.8067    26.7522     1.0964 O         1 MOL       0.0000
    533 O115        -5.1900    21.4658    10.9832 O         1 MOL       0.0000
    534 O116        -2.6902    20.5504    11.1958 O         1 MOL       0.0000
    535 F25         -6.3623    16.4128     1.8447 F         1 MOL       0.0000
    536 F26          4.2215     9.4618    11.7525 F         1 MOL       0.0000
    537 F27         -5.4093    14.8660     0.4625 F         1 MOL       0.0000
    538 F28         -5.8968    14.4515     2.9650 F         1 MOL       0.0000
    539 F29          2.1472     9.7041    11.1077 F         1 MOL       0.0000
    540 F30         -3.1603    23.3123     9.4540 F         1 MOL       0.0000
    541 S9           7.8858    13.5848     1.3967 S         1 MOL       0.0000
    542 S10         -3.8982    21.6265    11.5651 S         1 MOL       0.0000
    543 N28         -3.5194    16.0119     3.0405 N         1 MOL       0.0000
    544 N29         -5.4274    16.6434     3.9303 N         1 MOL       0.0000
    545 C179        -2.5079    15.7451     1.9959 C         1 MOL       0.0000
    546 C180        -4.6099    16.7843     2.8587 C         1 MOL       0.0000
    547 C181        -3.5659    15.5053     4.3281 C         1 MOL       0.0000
    548 C182        -2.7389    14.3991     1.3105 C         1 MOL       0.0000
    549 C183        -4.7580    15.8874     4.8793 C         1 MOL       0.0000
    550 C184        -6.8362    17.0662     4.0303 C         1 MOL       0.0000
    551 H158        -1.5440    15.7704     2.5152 H         1 MOL       0.0000
    552 H159        -2.5361    16.5793     1.2829 H         1 MOL       0.0000
    553 H160        -4.8921    17.2022     1.8973 H         1 MOL       0.0000
    554 H161        -1.8990    14.1768     0.6399 H         1 MOL       0.0000
    555 H162        -2.7354    14.9378     4.7167 H         1 MOL       0.0000
    556 H163        -6.9412    17.7763     4.8527 H         1 MOL       0.0000
    557 H164        -7.1273    17.5573     3.0966 H         1 MOL       0.0000
    558 H165        -2.8548    13.5778     2.0280 H         1 MOL       0.0000
    559 H166        -5.1777    15.6878     5.8550 H         1 MOL       0.0000
    560 H167        -3.6247    14.4222     0.6717 H         1 MOL       0.0000
    561 H168        -7.4938    16.1929     4.1555 H         1 MOL       0.0000
    562 N30         -7.0563    15.1507     1.4354 N         1 MOL       0.0000
    563 C185         1.1600    27.1981     2.6762 C         1 MOL       0.0000
    564 C186         3.2152     7.9415    12.1888 C         1 MOL       0.0000
    565 O117        -6.3601    17.3561     0.3011 O         1 MOL       0.0000
    566 O118        -5.5064    13.2567     3.0030 O         1 MOL       0.0000
    567 O119       -10.1684     8.2955    12.1557 O         1 MOL       0.0000
    568 O120         3.2013    26.7066     0.7292 O         1 MOL       0.0000
    569 F31          7.4488    13.0539     4.0241 F         1 MOL       0.0000
    570 F32          2.0534     8.5852    12.8025 F         1 MOL       0.0000
    571 F33          0.1142    27.4681     1.7319 F         1 MOL       0.0000
    572 F34          1.1170    25.8387     2.9436 F         1 MOL       0.0000
    573 F35          3.6998     8.3353    10.8104 F         1 MOL       0.0000
    574 F36         -3.4606    20.8786    12.1429 F         1 MOL       0.0000
    575 S11         -6.5369    15.9028     0.0475 S         1 MOL       0.0000
    576 S12        -13.0779    28.1282     1.8307 S         1 MOL       0.0000
    577 Ti25       -14.0074     9.7768    24.2844 Ti        1 MOL       0.0000
    578 Ti26        -3.1770    12.6580    14.9196 Ti        1 MOL       0.0000
    579 Ti27        -9.9108     5.8406    22.4644 Ti        1 MOL       0.0000
    580 Ti28        -8.3996    15.0027    16.6914 Ti        1 MOL       0.0000
    581 Ti29        -9.3981    16.6810    14.7870 Ti        1 MOL       0.0000
    582 Ti30        -8.0226     5.5862    24.4178 Ti        1 MOL       0.0000
    583 Ti31       -13.0582     8.0409    22.3929 Ti        1 MOL       0.0000
    584 Ti32        -5.1648    12.9605    16.7671 Ti        1 MOL       0.0000
    585 H169       -13.5056    13.6739    24.0649 H         1 MOL       0.0000
    586 H170        -2.3682     8.7519    15.2403 H         1 MOL       0.0000
    587 H171       -17.9673     9.0201    23.9020 H         1 MOL       0.0000
    588 H172         0.2052    14.6623    15.1202 H         1 MOL       0.0000
    589 H173        -7.0469     1.5517    24.0319 H         1 MOL       0.0000
    590 H174       -13.4567    16.0911    15.1091 H         1 MOL       0.0000
    591 H175       -13.5387     7.9782    26.0089 H         1 MOL       0.0000
    592 H176        -5.0525    12.4153    13.2196 H         1 MOL       0.0000
    593 H177        -7.5126     4.9191    18.9067 H         1 MOL       0.0000
    594 H178       -10.1230    16.8397    20.3103 H         1 MOL       0.0000
    595 H179       -17.1309    11.4295    22.0370 H         1 MOL       0.0000
    596 H180        -0.4222    10.5736    17.2256 H         1 MOL       0.0000
    597 H181       -14.8298     9.9821    18.7032 H         1 MOL       0.0000
    598 H182       -12.4982    18.5089    17.1402 H         1 MOL       0.0000
    599 H183        -9.0059    19.7838    15.6425 H         1 MOL       0.0000
    600 H184        -2.5260     6.7331    16.4428 H         1 MOL       0.0000
    601 H185        -6.3069    14.6828    15.3528 H         1 MOL       0.0000
    602 H186       -10.9915     7.6890    23.7580 H         1 MOL       0.0000
    603 H187        -3.7878     7.5211    22.8075 H         1 MOL       0.0000
    604 H188        -5.2689     7.0520    23.5548 H         1 MOL       0.0000
    605 H189        -3.2137    11.9547    21.7085 H         1 MOL       0.0000
    606 H190        -3.7834    12.3133    20.0900 H         1 MOL       0.0000
    607 H191        -4.2766     2.5662    22.6174 H         1 MOL       0.0000
    608 H192        -5.5558     3.6668    23.0748 H         1 MOL       0.0000
    609 C187        -2.5989    11.9167    17.7831 C         1 MOL       0.0000
    610 C188       -14.9680    10.0381    21.4374 C         1 MOL       0.0000
    611 C189        -7.3302     4.8299    21.5397 C         1 MOL       0.0000
    612 C190       -10.3357    16.9732    17.6507 C         1 MOL       0.0000
    613 C191        -1.7029    11.3124    18.7783 C         1 MOL       0.0000
    614 C192       -15.8999    10.6632    20.4603 C         1 MOL       0.0000
    615 C193        -6.3900     4.2155    20.5925 C         1 MOL       0.0000
    616 C194       -11.2255    17.6200    18.6505 C         1 MOL       0.0000
    617 C195        -1.9517    11.3873    20.1847 C         1 MOL       0.0000
    618 C196       -15.6835    10.5432    19.0723 C         1 MOL       0.0000
    619 C197        -5.2606     3.4552    21.0456 C         1 MOL       0.0000
    620 C198       -12.3202    18.3930    18.2056 C         1 MOL       0.0000
    621 C199       -10.9710    17.4492    20.0054 C         1 MOL       0.0000
    622 C200        -6.6378     4.3476    19.2086 C         1 MOL       0.0000
    623 C201        -0.5692    10.6134    18.3026 C         1 MOL       0.0000
    624 C202       -17.0001    11.3556    20.9590 C         1 MOL       0.0000
    625 C203        -2.3872     8.8310    13.0962 C         1 MOL       0.0000
    626 C204        -8.8569    20.6226    13.1212 C         1 MOL       0.0000
    627 C205        -4.5377     7.5281    26.0652 C         1 MOL       0.0000
    628 C206       -17.8960     9.0705    26.0458 C         1 MOL       0.0000
    629 C207        -7.6528    12.6595    18.6560 C         1 MOL       0.0000
    630 C208       -12.4089     5.5651    20.5741 C         1 MOL       0.0000
    631 C209        -7.1580     3.2199    26.1680 C         1 MOL       0.0000
    632 C210        -8.9496    19.1891    13.0837 C         1 MOL       0.0000
    633 C211        -5.8355     6.9113    26.1120 C         1 MOL       0.0000
    634 C212       -16.4937     9.4849    26.0703 C         1 MOL       0.0000
    635 C213        -2.3478     8.1619    14.3259 C         1 MOL       0.0000
    636 C214       -13.4946    14.2623    24.9788 C         1 MOL       0.0000
    637 C215       -15.2474    15.4259    14.1141 C         1 MOL       0.0000
    638 C216       -18.5288     8.8408    24.8173 C         1 MOL       0.0000
    639 C217        -3.8431     7.7964    24.8318 C         1 MOL       0.0000
    640 C218       -13.9582    15.9061    14.1633 C         1 MOL       0.0000
    641 C219        -7.0053     1.0245    24.9809 C         1 MOL       0.0000
    642 C220        -2.3261     6.7608    14.4075 C         1 MOL       0.0000
    643 N31         -2.2710     6.1619    15.6456 N         1 MOL       0.0000
    644 N32         -4.4221     7.6135    23.5928 N         1 MOL       0.0000
    645 N33         -3.0325    12.0336    20.7160 N         1 MOL       0.0000
    646 N34         -4.9296     3.2970    22.3630 N         1 MOL       0.0000
    647 O121        -3.7752    12.3218    18.1489 O         1 MOL       0.0000
    648 O122       -14.1990     9.0873    21.0391 O         1 MOL       0.0000
    649 O123        -6.9488     4.9543    22.7608 O         1 MOL       0.0000
    650 O124       -10.4015    17.4029    16.4512 O         1 MOL       0.0000
    651 O125        -9.5652    16.0160    18.0372 O         1 MOL       0.0000
    652 O126        -8.5007     5.1983    21.1342 O         1 MOL       0.0000
    653 O127        -2.1870    11.9975    16.5714 O         1 MOL       0.0000
    654 O128       -15.0100    10.4744    22.6371 O         1 MOL       0.0000
    655 O129        -4.8596    11.7426    15.5724 O         1 MOL       0.0000
    656 O130       -12.5058     9.6012    23.1374 O         1 MOL       0.0000
    657 O131        -3.9208    14.0299    16.0223 O         1 MOL       0.0000
    658 O132       -14.2580     7.8765    23.6301 O         1 MOL       0.0000
    659 O133        -9.6515     4.6686    23.7248 O         1 MOL       0.0000
    660 O134        -7.8830    16.5640    15.9529 O         1 MOL       0.0000
    661 O135        -8.6975     6.9301    23.2607 O         1 MOL       0.0000
    662 O136        -9.5892    14.8069    15.4355 O         1 MOL       0.0000
    663 O137        -6.4317    12.4797    18.3017 O         1 MOL       0.0000
    664 O138       -13.0666     6.6001    20.9523 O         1 MOL       0.0000
    665 O139        -7.2802     3.8144    25.0269 O         1 MOL       0.0000
    666 O140        -9.0327    18.4876    14.1789 O         1 MOL       0.0000
    667 O141        -6.4781     6.6025    25.0218 O         1 MOL       0.0000
    668 O142       -11.2687    16.6519    14.1188 O         1 MOL       0.0000
    669 O143       -11.2471     5.2706    21.0319 O         1 MOL       0.0000
    670 O144        -8.3947    13.5804    18.1626 O         1 MOL       0.0000
    671 O145        -1.7399    13.6771    14.1650 O         1 MOL       0.0000
    672 O146       -15.8942     9.7167    24.9528 O         1 MOL       0.0000
    673 O147        -2.5355    10.9228    14.1944 O         1 MOL       0.0000
    674 O148       -13.6260    11.4990    25.0341 O         1 MOL       0.0000
    675 O149        -6.6678    14.1341    16.0734 O         1 MOL       0.0000
    676 O150       -11.3697     7.1303    23.0545 O         1 MOL       0.0000
    677 O151        -4.2137    12.9089    13.1406 O         1 MOL       0.0000
    678 O152       -13.4163     8.9450    26.0689 O         1 MOL       0.0000
    679 H193        -7.4520     9.0090    21.5580 H         1 MOL       0.0000
    680 H194       -17.7568    18.1619    19.1478 H         1 MOL       0.0000
    681 H195        -6.6979    17.7620    18.6186 H         1 MOL       0.0000
    682 H196        -6.4544    10.5522    19.8419 H         1 MOL       0.0000
    683 H197       -11.1092    11.2751    21.4691 H         1 MOL       0.0000
    684 H198         0.9787     4.8966    20.0512 H         1 MOL       0.0000
    685 H199        -9.7786     9.3773    22.3330 H         1 MOL       0.0000
    686 H200       -10.1114    12.8151    19.7470 H         1 MOL       0.0000
    687 H201        -5.3625    15.9919    17.5024 H         1 MOL       0.0000
    688 H202        -2.9067    15.8979    17.7879 H         1 MOL       0.0000
    689 C221        -8.2295    11.7655    19.6877 C         1 MOL       0.0000
    690 C222        -9.3396    10.0516    21.5997 C         1 MOL       0.0000
    691 C223        -4.8643    16.7326    18.1268 C         1 MOL       0.0000
    692 C224       -13.0655     4.6009    19.6579 C         1 MOL       0.0000
    693 C225        -9.5436    11.9778    20.1477 C         1 MOL       0.0000
    694 C226        -8.0259     9.8434    21.1576 C         1 MOL       0.0000
    695 C227        -5.6166    17.7387    18.7452 C         1 MOL       0.0000
    696 C228       -18.8327    18.1942    18.9882 C         1 MOL       0.0000
    697 C229        -3.4742    16.6842    18.2834 C         1 MOL       0.0000
    698 C230         1.5400     4.1001    19.5679 C         1 MOL       0.0000
    699 C231        -7.4695    10.6983    20.2055 C         1 MOL       0.0000
    700 C232       -10.0946    11.1226    21.1033 C         1 MOL       0.0000
    701 N35         -5.5166    18.4930    14.3201 N         1 MOL       0.0000
    702 N36         -9.0160    10.3215    25.9083 N         1 MOL       0.0000
    703 C233        -5.7637    19.0847    13.0923 C         1 MOL       0.0000
    704 C234        -9.7052    11.3180    25.2400 C         1 MOL       0.0000
    705 C235        -6.7566    10.2663    24.9101 C         1 MOL       0.0000
    706 C236        -5.9707    19.0227    15.6166 C         1 MOL       0.0000
    707 C237        -4.6540    17.4780    14.1297 C         1 MOL       0.0000
    708 C238        -7.9842     9.4535    25.3134 C         1 MOL       0.0000
    709 H203       -10.9952    12.9156    26.0900 H         1 MOL       0.0000
    710 H204        -9.6332    11.4604    24.1698 H         1 MOL       0.0000
    711 H205        -7.0176    11.0638    24.2025 H         1 MOL       0.0000
    712 H206        -6.3797    20.0270    15.4722 H         1 MOL       0.0000
    713 H207        -6.2922    10.7378    25.7835 H         1 MOL       0.0000
    714 H208        -6.6615    18.3286    16.0843 H         1 MOL       0.0000
    715 H209        -6.0206     9.6045    24.4363 H         1 MOL       0.0000
    716 H210        -8.4264     8.9356    24.4540 H         1 MOL       0.0000
    717 H211        -5.1159    19.1223    16.2885 H         1 MOL       0.0000
    718 H212        -4.1848    16.8862    14.9047 H         1 MOL       0.0000
    719 H213        -7.7481     8.6926    26.0649 H         1 MOL       0.0000
    720 N37          2.4930     7.3236    13.2991 N         1 MOL       0.0000
    721 C239       -10.7344     7.8859    14.7107 C         1 MOL       0.0000
    722 C240        -1.5506     1.7522    24.2100 C         1 MOL       0.0000
    723 O153         2.6389     6.9382    15.7822 O         1 MOL       0.0000
    724 O154        -2.8283    19.6862    14.1914 O         1 MOL       0.0000
    725 O155        -9.8250    14.3998    24.0782 O         1 MOL       0.0000
    726 O156        -7.3252    13.4844    24.2908 O         1 MOL       0.0000
    727 F37        -10.9973     9.3468    14.9397 F         1 MOL       0.0000
    728 F38         -0.4135     2.3958    24.8475 F         1 MOL       0.0000
    729 F39        -10.0443     7.8000    13.5575 F         1 MOL       0.0000
    730 F40        -10.5318     7.3855    16.0600 F         1 MOL       0.0000
    731 F41         -2.4878     2.6381    24.2027 F         1 MOL       0.0000
    732 F42         -7.7953    16.2463    22.5490 F         1 MOL       0.0000
    733 S13          3.2508     6.5188    14.4917 S         1 MOL       0.0000
    734 S14         -8.5332    14.5605    24.6601 S         1 MOL       0.0000
    735 N38         -8.1544     8.9459    16.1355 N         1 MOL       0.0000
    736 N39        -10.0624     9.5774    17.0253 N         1 MOL       0.0000
    737 C241        -7.1429     8.6791    15.0909 C         1 MOL       0.0000
    738 C242        -9.2449     9.7183    15.9537 C         1 MOL       0.0000
    739 C243        -8.2009     8.4393    17.4231 C         1 MOL       0.0000
    740 C244        -7.3739     7.3331    14.4055 C         1 MOL       0.0000
    741 C245        -9.3930     8.8214    17.9743 C         1 MOL       0.0000
    742 C246       -11.4712    10.0002    17.1253 C         1 MOL       0.0000
    743 H214        -6.1790     8.7044    15.6102 H         1 MOL       0.0000
    744 H215        -7.1711     9.5133    14.3779 H         1 MOL       0.0000
    745 H216        -9.5271    10.1362    14.9923 H         1 MOL       0.0000
    746 H217        -6.5340     7.1108    13.7349 H         1 MOL       0.0000
    747 H218        -7.3704     7.8718    17.8117 H         1 MOL       0.0000
    748 H219       -11.5762    10.7103    17.9477 H         1 MOL       0.0000
    749 H220       -11.7623    10.4913    16.1916 H         1 MOL       0.0000
    750 H221        -7.4898     6.5118    15.1230 H         1 MOL       0.0000
    751 H222        -9.8127     8.6218    18.9500 H         1 MOL       0.0000
    752 H223        -8.2597     7.3562    13.7667 H         1 MOL       0.0000
    753 H224       -12.1288     9.1269    17.2505 H         1 MOL       0.0000
    754 N40        -11.6913     8.0847    14.5304 N         1 MOL       0.0000
    755 C247        -3.4750    20.1321    15.7712 C         1 MOL       0.0000
    756 C248        -1.4198     0.8755    25.2838 C         1 MOL       0.0000
    757 O157       -10.9951    10.2901    13.3961 O         1 MOL       0.0000
    758 O158       -10.1414     6.1907    16.0980 O         1 MOL       0.0000
    759 O159       -14.8034     1.2295    25.2507 O         1 MOL       0.0000
    760 O160        -1.4337    19.6406    13.8242 O         1 MOL       0.0000
    761 F43          2.8138     5.9879    17.1191 F         1 MOL       0.0000
    762 F44         -2.5816     1.5192    25.8975 F         1 MOL       0.0000
    763 F45         -4.5208    20.4021    14.8269 F         1 MOL       0.0000
    764 F46         -3.5180    18.7727    16.0386 F         1 MOL       0.0000
    765 F47         -0.9352     1.2693    23.9054 F         1 MOL       0.0000
    766 F48         -8.0956    13.8126    25.2379 F         1 MOL       0.0000
    767 S15        -11.1719     8.8368    13.1425 S         1 MOL       0.0000
    768 S16        -17.7129    21.0622    14.9257 S         1 MOL       0.0000
    769 Ti33        13.1446     1.6728    11.3364 Ti        1 MOL       0.0000
    770 Ti34        23.9750     4.5540     1.9716 Ti        1 MOL       0.0000
    771 Ti35        17.2413    -2.2634     9.5164 Ti        1 MOL       0.0000
    772 Ti36        18.7524     6.8987     3.7434 Ti        1 MOL       0.0000
    773 Ti37        17.7539     8.5770     1.8390 Ti        1 MOL       0.0000
    774 Ti38        19.1295    -2.5178    11.4698 Ti        1 MOL       0.0000
    775 Ti39        14.0938    -0.0631     9.4449 Ti        1 MOL       0.0000
    776 Ti40        21.9872     4.8565     3.8191 Ti        1 MOL       0.0000
    777 H225        13.6464     5.5698    11.1169 H         1 MOL       0.0000
    778 H226        24.7838     0.6479     2.2923 H         1 MOL       0.0000
    779 H227         9.1847     0.9161    10.9540 H         1 MOL       0.0000
    780 H228        27.3572     6.5583     2.1722 H         1 MOL       0.0000
    781 H229        20.1051    -6.5523    11.0839 H         1 MOL       0.0000
    782 H230        13.6953     7.9871     2.1610 H         1 MOL       0.0000
    783 H231        13.6133    -0.1258    13.0609 H         1 MOL       0.0000
    784 H232        22.0995     4.3113     0.2717 H         1 MOL       0.0000
    785 H233        19.6394    -3.1849     5.9587 H         1 MOL       0.0000
    786 H234        17.0290     8.7357     7.3624 H         1 MOL       0.0000
    787 H235        10.0211     3.3255     9.0890 H         1 MOL       0.0000
    788 H236        26.7298     2.4697     4.2776 H         1 MOL       0.0000
    789 H237        12.3222     1.8781     5.7552 H         1 MOL       0.0000
    790 H238        14.6538    10.4049     4.1922 H         1 MOL       0.0000
    791 H239        18.1461    11.6798     2.6945 H         1 MOL       0.0000
    792 H240        24.6260    -1.3709     3.4948 H         1 MOL       0.0000
    793 H241        20.8451     6.5788     2.4048 H         1 MOL       0.0000
    794 H242        16.1605    -0.4150    10.8100 H         1 MOL       0.0000
    795 H243        23.3642    -0.5829     9.8595 H         1 MOL       0.0000
    796 H244        21.8831    -1.0520    10.6068 H         1 MOL       0.0000
    797 H245        23.9383     3.8507     8.7606 H         1 MOL       0.0000
    798 H246        23.3686     4.2093     7.1420 H         1 MOL       0.0000
    799 H247        22.8754    -5.5378     9.6694 H         1 MOL       0.0000
    800 H248        21.5962    -4.4372    10.1268 H         1 MOL       0.0000
    801 C249        24.5531     3.8127     4.8351 C         1 MOL       0.0000
    802 C250        12.1840     1.9341     8.4894 C         1 MOL       0.0000
    803 C251        19.8218    -3.2741     8.5917 C         1 MOL       0.0000
    804 C252        16.8163     8.8692     4.7027 C         1 MOL       0.0000
    805 C253        25.4491     3.2084     5.8303 C         1 MOL       0.0000
    806 C254        11.2521     2.5592     7.5123 C         1 MOL       0.0000
    807 C255        20.7620    -3.8885     7.6445 C         1 MOL       0.0000
    808 C256        15.9265     9.5160     5.7025 C         1 MOL       0.0000
    809 C257        25.2003     3.2833     7.2367 C         1 MOL       0.0000
    810 C258        11.4685     2.4392     6.1243 C         1 MOL       0.0000
    811 C259        21.8914    -4.6488     8.0976 C         1 MOL       0.0000
    812 C260        14.8318    10.2890     5.2576 C         1 MOL       0.0000
    813 C261        16.1810     9.3453     7.0574 C         1 MOL       0.0000
    814 C262        20.5142    -3.7563     6.2606 C         1 MOL       0.0000
    815 C263        26.5828     2.5094     5.3546 C         1 MOL       0.0000
    816 C264        10.1519     3.2516     8.0110 C         1 MOL       0.0000
    817 C265        24.7648     0.7270     0.1482 C         1 MOL       0.0000
    818 C266        18.2951    12.5186     0.1732 C         1 MOL       0.0000
    819 C267        22.6143    -0.5759    13.1172 C         1 MOL       0.0000
    820 C268         9.2560     0.9665    13.0978 C         1 MOL       0.0000
    821 C269        19.4992     4.5555     5.7080 C         1 MOL       0.0000
    822 C270        14.7431    -2.5389     7.6261 C         1 MOL       0.0000
    823 C271        19.9940    -4.8842    13.2200 C         1 MOL       0.0000
    824 C272        18.2024    11.0851     0.1357 C         1 MOL       0.0000
    825 C273        21.3164    -1.1927    13.1640 C         1 MOL       0.0000
    826 C274        10.6583     1.3809    13.1223 C         1 MOL       0.0000
    827 C275        24.8042     0.0579     1.3779 C         1 MOL       0.0000
    828 C276        13.6574     6.1583    12.0308 C         1 MOL       0.0000
    829 C277        11.9046     7.3219     1.1661 C         1 MOL       0.0000
    830 C278         8.6232     0.7368    11.8693 C         1 MOL       0.0000
    831 C279        23.3089    -0.3076    11.8838 C         1 MOL       0.0000
    832 C280        13.1938     7.8021     1.2153 C         1 MOL       0.0000
    833 C281        20.1467    -7.0795    12.0329 C         1 MOL       0.0000
    834 C282        24.8259    -1.3432     1.4595 C         1 MOL       0.0000
    835 N41         24.8809    -1.9421     2.6976 N         1 MOL       0.0000
    836 N42         22.7299    -0.4905    10.6448 N         1 MOL       0.0000
    837 N43         24.1195     3.9296     7.7680 N         1 MOL       0.0000
    838 N44         22.2224    -4.8070     9.4150 N         1 MOL       0.0000
    839 O161        23.3768     4.2178     5.2009 O         1 MOL       0.0000
    840 O162        12.9530     0.9833     8.0911 O         1 MOL       0.0000
    841 O163        20.2032    -3.1497     9.8128 O         1 MOL       0.0000
    842 O164        16.7505     9.2989     3.5031 O         1 MOL       0.0000
    843 O165        17.5868     7.9120     5.0892 O         1 MOL       0.0000
    844 O166        18.6513    -2.9057     8.1862 O         1 MOL       0.0000
    845 O167        24.9650     3.8935     3.6234 O         1 MOL       0.0000
    846 O168        12.1420     2.3704     9.6891 O         1 MOL       0.0000
    847 O169        22.2924     3.6386     2.6244 O         1 MOL       0.0000
    848 O170        14.6462     1.4972    10.1894 O         1 MOL       0.0000
    849 O171        23.2312     5.9259     3.0743 O         1 MOL       0.0000
    850 O172        12.8940    -0.2275    10.6821 O         1 MOL       0.0000
    851 O173        17.5006    -3.4354    10.7768 O         1 MOL       0.0000
    852 O174        19.2690     8.4600     3.0049 O         1 MOL       0.0000
    853 O175        18.4545    -1.1739    10.3127 O         1 MOL       0.0000
    854 O176        17.5628     6.7029     2.4875 O         1 MOL       0.0000
    855 O177        20.7203     4.3756     5.3537 O         1 MOL       0.0000
    856 O178        14.0854    -1.5039     8.0043 O         1 MOL       0.0000
    857 O179        19.8718    -4.2896    12.0789 O         1 MOL       0.0000
    858 O180        18.1193    10.3836     1.2309 O         1 MOL       0.0000
    859 O181        20.6739    -1.5015    12.0738 O         1 MOL       0.0000
    860 O182        15.8833     8.5479     1.1708 O         1 MOL       0.0000
    861 O183        15.9049    -2.8334     8.0839 O         1 MOL       0.0000
    862 O184        18.7573     5.4764     5.2146 O         1 MOL       0.0000
    863 O185        25.4121     5.5731     1.2170 O         1 MOL       0.0000
    864 O186        11.2578     1.6127    12.0048 O         1 MOL       0.0000
    865 O187        24.6166     2.8188     1.2464 O         1 MOL       0.0000
    866 O188        13.5260     3.3950    12.0861 O         1 MOL       0.0000
    867 O189        20.4842     6.0301     3.1254 O         1 MOL       0.0000
    868 O190        15.7823    -0.9737    10.1065 O         1 MOL       0.0000
    869 O191        22.9383     4.8049     0.1926 O         1 MOL       0.0000
    870 O192        13.7357     0.8410    13.1209 O         1 MOL       0.0000
    871 H249        19.7000     0.9050     8.6100 H         1 MOL       0.0000
    872 H250         9.3952    10.0579     6.1998 H         1 MOL       0.0000
    873 H251        20.4541     9.6580     5.6706 H         1 MOL       0.0000
    874 H252        20.6976     2.4482     6.8939 H         1 MOL       0.0000
    875 H253        16.0428     3.1711     8.5211 H         1 MOL       0.0000
    876 H254        28.1307    -3.2074     7.1032 H         1 MOL       0.0000
    877 H255        17.3734     1.2733     9.3850 H         1 MOL       0.0000
    878 H256        17.0406     4.7111     6.7990 H         1 MOL       0.0000
    879 H257        21.7895     7.8879     4.5544 H         1 MOL       0.0000
    880 H258        24.2453     7.7939     4.8399 H         1 MOL       0.0000
    881 C283        18.9225     3.6615     6.7397 C         1 MOL       0.0000
    882 C284        17.8124     1.9476     8.6517 C         1 MOL       0.0000
    883 C285        22.2877     8.6286     5.1788 C         1 MOL       0.0000
    884 C286        14.0865    -3.5031     6.7099 C         1 MOL       0.0000
    885 C287        17.6084     3.8738     7.1997 C         1 MOL       0.0000
    886 C288        19.1261     1.7394     8.2096 C         1 MOL       0.0000
    887 C289        21.5354     9.6347     5.7972 C         1 MOL       0.0000
    888 C290         8.3193    10.0902     6.0402 C         1 MOL       0.0000
    889 C291        23.6778     8.5802     5.3354 C         1 MOL       0.0000
    890 C292        28.6920    -4.0039     6.6199 C         1 MOL       0.0000
    891 C293        19.6825     2.5943     7.2575 C         1 MOL       0.0000
    892 C294        17.0574     3.0186     8.1553 C         1 MOL       0.0000
    893 N45         21.6354    10.3890     1.3721 N         1 MOL       0.0000
    894 N46         18.1360     2.2175    12.9603 N         1 MOL       0.0000
    895 C295        21.3883    10.9807     0.1443 C         1 MOL       0.0000
    896 C296        17.4468     3.2140    12.2920 C         1 MOL       0.0000
    897 C297        20.3954     2.1623    11.9621 C         1 MOL       0.0000
    898 C298        21.1813    10.9187     2.6686 C         1 MOL       0.0000
    899 C299        22.4980     9.3740     1.1817 C         1 MOL       0.0000
    900 C300        19.1678     1.3495    12.3654 C         1 MOL       0.0000
    901 H259        16.1568     4.8116    13.1420 H         1 MOL       0.0000
    902 H260        17.5188     3.3564    11.2218 H         1 MOL       0.0000
    903 H261        20.1344     2.9598    11.2545 H         1 MOL       0.0000
    904 H262        20.7723    11.9230     2.5242 H         1 MOL       0.0000
    905 H263        20.8598     2.6338    12.8355 H         1 MOL       0.0000
    906 H264        20.4905    10.2246     3.1363 H         1 MOL       0.0000
    907 H265        21.1314     1.5005    11.4883 H         1 MOL       0.0000
    908 H266        18.7256     0.8316    11.5060 H         1 MOL       0.0000
    909 H267        22.0361    11.0183     3.3405 H         1 MOL       0.0000
    910 H268        22.9672     8.7822     1.9567 H         1 MOL       0.0000
    911 H269        19.4039     0.5886    13.1169 H         1 MOL       0.0000
    912 N47         29.6450    -0.7804     0.3511 N         1 MOL       0.0000
    913 C301        16.4176    -0.2181     1.7627 C         1 MOL       0.0000
    914 C302        25.6014    -6.3518    11.2620 C         1 MOL       0.0000
    915 O193        29.7909    -1.1658     2.8342 O         1 MOL       0.0000
    916 O194        24.3237    11.5822     1.2434 O         1 MOL       0.0000
    917 O195        17.3270     6.2958    11.1302 O         1 MOL       0.0000
    918 O196        19.8268     5.3804    11.3428 O         1 MOL       0.0000
    919 F49         16.1547     1.2428     1.9917 F         1 MOL       0.0000
    920 F50         26.7385    -5.7082    11.8995 F         1 MOL       0.0000
    921 F51         17.1077    -0.3040     0.6095 F         1 MOL       0.0000
    922 F52         16.6202    -0.7185     3.1120 F         1 MOL       0.0000
    923 F53         24.6642    -5.4659    11.2547 F         1 MOL       0.0000
    924 F54         19.3567     8.1423     9.6010 F         1 MOL       0.0000
    925 S17         30.4028    -1.5852     1.5437 S         1 MOL       0.0000
    926 S18         18.6188     6.4565    11.7121 S         1 MOL       0.0000
    927 N48         18.9976     0.8419     3.1875 N         1 MOL       0.0000
    928 N49         17.0896     1.4734     4.0773 N         1 MOL       0.0000
    929 C303        20.0091     0.5751     2.1429 C         1 MOL       0.0000
    930 C304        17.9071     1.6143     3.0057 C         1 MOL       0.0000
    931 C305        18.9511     0.3353     4.4751 C         1 MOL       0.0000
    932 C306        19.7781    -0.7709     1.4575 C         1 MOL       0.0000
    933 C307        17.7590     0.7174     5.0263 C         1 MOL       0.0000
    934 C308        15.6808     1.8962     4.1773 C         1 MOL       0.0000
    935 H270        20.9730     0.6004     2.6622 H         1 MOL       0.0000
    936 H271        19.9809     1.4093     1.4299 H         1 MOL       0.0000
    937 H272        17.6249     2.0322     2.0443 H         1 MOL       0.0000
    938 H273        20.6180    -0.9932     0.7869 H         1 MOL       0.0000
    939 H274        19.7816    -0.2322     4.8637 H         1 MOL       0.0000
    940 H275        15.5758     2.6063     4.9997 H         1 MOL       0.0000
    941 H276        15.3897     2.3873     3.2436 H         1 MOL       0.0000
    942 H277        19.6622    -1.5922     2.1750 H         1 MOL       0.0000
    943 H278        17.3393     0.5178     6.0020 H         1 MOL       0.0000
    944 H279        18.8923    -0.7478     0.8187 H         1 MOL       0.0000
    945 H280        15.0232     1.0229     4.3025 H         1 MOL       0.0000
    946 N50         15.4607    -0.0193     1.5824 N         1 MOL       0.0000
    947 C309        23.6770    12.0281     2.8232 C         1 MOL       0.0000
    948 C310        25.7322    -7.2285    12.3358 C         1 MOL       0.0000
    949 O197        16.1569     2.1861     0.4481 O         1 MOL       0.0000
    950 O198        17.0106    -1.9133     3.1500 O         1 MOL       0.0000
    951 O199        12.3486    -6.8745    12.3027 O         1 MOL       0.0000
    952 O200        25.7183    11.5366     0.8762 O         1 MOL       0.0000
    953 F55         29.9658    -2.1161     4.1711 F         1 MOL       0.0000
    954 F56         24.5704    -6.5848    12.9495 F         1 MOL       0.0000
    955 F57         22.6312    12.2981     1.8789 F         1 MOL       0.0000
    956 F58         23.6340    10.6687     3.0906 F         1 MOL       0.0000
    957 F59         26.2168    -6.8347    10.9574 F         1 MOL       0.0000
    958 F60         19.0564     5.7086    12.2899 F         1 MOL       0.0000
    959 S19         15.9801     0.7328     0.1945 S         1 MOL       0.0000
    960 S20          9.4391    12.9582     1.9777 S         1 MOL       0.0000
    961 Ti41         8.5096    -5.3932    24.4314 Ti        1 MOL       0.0000
    962 Ti42        19.3400    -2.5120    15.0666 Ti        1 MOL       0.0000
    963 Ti43        12.6063    -9.3294    22.6114 Ti        1 MOL       0.0000
    964 Ti44        14.1174    -0.1673    16.8384 Ti        1 MOL       0.0000
    965 Ti45        13.1189     1.5110    14.9340 Ti        1 MOL       0.0000
    966 Ti46        14.4945    -9.5838    24.5648 Ti        1 MOL       0.0000
    967 Ti47         9.4588    -7.1291    22.5399 Ti        1 MOL       0.0000
    968 Ti48        17.3522    -2.2095    16.9140 Ti        1 MOL       0.0000
    969 H281         9.0114    -1.4961    24.2119 H         1 MOL       0.0000
    970 H282        20.1488    -6.4181    15.3873 H         1 MOL       0.0000
    971 H283         4.5497    -6.1499    24.0490 H         1 MOL       0.0000
    972 H284        22.7222    -0.5077    15.2672 H         1 MOL       0.0000
    973 H285        15.4701   -13.6183    24.1789 H         1 MOL       0.0000
    974 H286         9.0603     0.9211    15.2561 H         1 MOL       0.0000
    975 H287         8.9783    -7.1918    26.1559 H         1 MOL       0.0000
    976 H288        17.4645    -2.7547    13.3666 H         1 MOL       0.0000
    977 H289        15.0044   -10.2509    19.0537 H         1 MOL       0.0000
    978 H290        12.3940     1.6697    20.4573 H         1 MOL       0.0000
    979 H291         5.3861    -3.7405    22.1840 H         1 MOL       0.0000
    980 H292        22.0948    -4.5963    17.3726 H         1 MOL       0.0000
    981 H293         7.6872    -5.1879    18.8502 H         1 MOL       0.0000
    982 H294        10.0188     3.3389    17.2872 H         1 MOL       0.0000
    983 H295        13.5111     4.6138    15.7895 H         1 MOL       0.0000
    984 H296        19.9910    -8.4369    16.5898 H         1 MOL       0.0000
    985 H297        16.2101    -0.4872    15.4998 H         1 MOL       0.0000
    986 H298        11.5255    -7.4810    23.9050 H         1 MOL       0.0000
    987 H299        18.7292    -7.6489    22.9545 H         1 MOL       0.0000
    988 H300        17.2481    -8.1180    23.7018 H         1 MOL       0.0000
    989 H301        19.3033    -3.2153    21.8555 H         1 MOL       0.0000
    990 H302        18.7336    -2.8567    20.2370 H         1 MOL       0.0000
    991 H303        18.2404   -12.6038    22.7644 H         1 MOL       0.0000
    992 H304        16.9612   -11.5032    23.2218 H         1 MOL       0.0000
    993 C311        19.9181    -3.2533    17.9301 C         1 MOL       0.0000
    994 C312         7.5490    -5.1319    21.5844 C         1 MOL       0.0000
    995 C313        15.1867   -10.3401    21.6867 C         1 MOL       0.0000
    996 C314        12.1813     1.8032    17.7978 C         1 MOL       0.0000
    997 C315        20.8141    -3.8576    18.9253 C         1 MOL       0.0000
    998 C316         6.6171    -4.5068    20.6073 C         1 MOL       0.0000
    999 C317        16.1270   -10.9545    20.7395 C         1 MOL       0.0000
   1000 C318        11.2915     2.4500    18.7975 C         1 MOL       0.0000
   1001 C319        20.5653    -3.7827    20.3317 C         1 MOL       0.0000
   1002 C320         6.8335    -4.6268    19.2193 C         1 MOL       0.0000
   1003 C321        17.2564   -11.7148    21.1926 C         1 MOL       0.0000
   1004 C322        10.1968     3.2230    18.3526 C         1 MOL       0.0000
   1005 C323        11.5460     2.2792    20.1524 C         1 MOL       0.0000
   1006 C324        15.8792   -10.8223    19.3556 C         1 MOL       0.0000
   1007 C325        21.9478    -4.5566    18.4496 C         1 MOL       0.0000
   1008 C326         5.5170    -3.8144    21.1060 C         1 MOL       0.0000
   1009 C327        20.1298    -6.3390    13.2432 C         1 MOL       0.0000
   1010 C328        13.6601     5.4526    13.2682 C         1 MOL       0.0000
   1011 C329        17.9793    -7.6419    26.2122 C         1 MOL       0.0000
   1012 C330         4.6210    -6.0995    26.1928 C         1 MOL       0.0000
   1013 C331        14.8642    -2.5105    18.8030 C         1 MOL       0.0000
   1014 C332        10.1081    -9.6049    20.7211 C         1 MOL       0.0000
   1015 C333        15.3590   -11.9502    26.3150 C         1 MOL       0.0000
   1016 C334        13.5674     4.0191    13.2307 C         1 MOL       0.0000
   1017 C335        16.6814    -8.2587    26.2590 C         1 MOL       0.0000
   1018 C336         6.0233    -5.6851    26.2173 C         1 MOL       0.0000
   1019 C337        20.1692    -7.0081    14.4729 C         1 MOL       0.0000
   1020 C338         9.0224    -0.9077    25.1258 C         1 MOL       0.0000
   1021 C339         7.2696     0.2559    14.2611 C         1 MOL       0.0000
   1022 C340         3.9882    -6.3292    24.9643 C         1 MOL       0.0000
   1023 C341        18.6739    -7.3736    24.9788 C         1 MOL       0.0000
   1024 C342         8.5588     0.7361    14.3103 C         1 MOL       0.0000
   1025 C343        15.5117   -14.1455    25.1279 C         1 MOL       0.0000
   1026 C344        20.1909    -8.4092    14.5545 C         1 MOL       0.0000
   1027 N51         20.2459    -9.0081    15.7926 N         1 MOL       0.0000
   1028 N52         18.0949    -7.5564    23.7398 N         1 MOL       0.0000
   1029 N53         19.4844    -3.1364    20.8630 N         1 MOL       0.0000
   1030 N54         17.5874   -11.8730    22.5100 N         1 MOL       0.0000
   1031 O201        18.7418    -2.8482    18.2959 O         1 MOL       0.0000
   1032 O202         8.3180    -6.0827    21.1861 O         1 MOL       0.0000
   1033 O203        15.5682   -10.2157    22.9078 O         1 MOL       0.0000
   1034 O204        12.1155     2.2329    16.5982 O         1 MOL       0.0000
   1035 O205        12.9518     0.8460    18.1842 O         1 MOL       0.0000
   1036 O206        14.0163    -9.9717    21.2812 O         1 MOL       0.0000
   1037 O207        20.3300    -3.1725    16.7184 O         1 MOL       0.0000
   1038 O208         7.5070    -4.6956    22.7841 O         1 MOL       0.0000
   1039 O209        17.6574    -3.4274    15.7194 O         1 MOL       0.0000
   1040 O210        10.0112    -5.5688    23.2844 O         1 MOL       0.0000
   1041 O211        18.5962    -1.1401    16.1693 O         1 MOL       0.0000
   1042 O212         8.2590    -7.2935    23.7771 O         1 MOL       0.0000
   1043 O213        12.8655   -10.5014    23.8718 O         1 MOL       0.0000
   1044 O214        14.6340     1.3940    16.0999 O         1 MOL       0.0000
   1045 O215        13.8195    -8.2399    23.4077 O         1 MOL       0.0000
   1046 O216        12.9278    -0.3631    15.5825 O         1 MOL       0.0000
   1047 O217        16.0853    -2.6904    18.4487 O         1 MOL       0.0000
   1048 O218         9.4504    -8.5699    21.0993 O         1 MOL       0.0000
   1049 O219        15.2368   -11.3556    25.1739 O         1 MOL       0.0000
   1050 O220        13.4843     3.3176    14.3259 O         1 MOL       0.0000
   1051 O221        16.0389    -8.5675    25.1688 O         1 MOL       0.0000
   1052 O222        11.2483     1.4819    14.2658 O         1 MOL       0.0000
   1053 O223        11.2699    -9.8994    21.1789 O         1 MOL       0.0000
   1054 O224        14.1223    -1.5896    18.3096 O         1 MOL       0.0000
   1055 O225        20.7771    -1.4929    14.3120 O         1 MOL       0.0000
   1056 O226         6.6228    -5.4533    25.0998 O         1 MOL       0.0000
   1057 O227        19.9816    -4.2472    14.3414 O         1 MOL       0.0000
   1058 O228         8.8910    -3.6709    25.1811 O         1 MOL       0.0000
   1059 O229        15.8492    -1.0359    16.2204 O         1 MOL       0.0000
   1060 O230        11.1473    -8.0397    23.2015 O         1 MOL       0.0000
   1061 O231        18.3033    -2.2611    13.2876 O         1 MOL       0.0000
   1062 O232         9.1007    -6.2250    26.2159 O         1 MOL       0.0000
   1063 H305        15.0650    -6.1610    21.7050 H         1 MOL       0.0000
   1064 H306         4.7602     2.9919    19.2948 H         1 MOL       0.0000
   1065 H307        15.8191     2.5920    18.7656 H         1 MOL       0.0000
   1066 H308        16.0626    -4.6178    19.9889 H         1 MOL       0.0000
   1067 H309        11.4078    -3.8949    21.6161 H         1 MOL       0.0000
   1068 H310        23.4957   -10.2734    20.1982 H         1 MOL       0.0000
   1069 H311        12.7384    -5.7927    22.4800 H         1 MOL       0.0000
   1070 H312        12.4056    -2.3549    19.8940 H         1 MOL       0.0000
   1071 H313        17.1545     0.8219    17.6494 H         1 MOL       0.0000
   1072 H314        19.6103     0.7279    17.9349 H         1 MOL       0.0000
   1073 C345        14.2875    -3.4045    19.8347 C         1 MOL       0.0000
   1074 C346        13.1774    -5.1184    21.7467 C         1 MOL       0.0000
   1075 C347        17.6527     1.5626    18.2738 C         1 MOL       0.0000
   1076 C348         9.4515   -10.5691    19.8049 C         1 MOL       0.0000
   1077 C349        12.9734    -3.1922    20.2947 C         1 MOL       0.0000
   1078 C350        14.4911    -5.3266    21.3046 C         1 MOL       0.0000
   1079 C351        16.9004     2.5687    18.8922 C         1 MOL       0.0000
   1080 C352         3.6843     3.0242    19.1352 C         1 MOL       0.0000
   1081 C353        19.0428     1.5142    18.4304 C         1 MOL       0.0000
   1082 C354        24.0570   -11.0699    19.7149 C         1 MOL       0.0000
   1083 C355        15.0475    -4.4717    20.3525 C         1 MOL       0.0000
   1084 C356        12.4224    -4.0474    21.2503 C         1 MOL       0.0000
   1085 N55         17.0004     3.3230    14.4671 N         1 MOL       0.0000
   1086 N56         13.5010    -4.8485    26.0553 N         1 MOL       0.0000
   1087 C357        16.7533     3.9147    13.2393 C         1 MOL       0.0000
   1088 C358        12.8118    -3.8520    25.3870 C         1 MOL       0.0000
   1089 C359        15.7604    -4.9037    25.0571 C         1 MOL       0.0000
   1090 C360        16.5463     3.8527    15.7636 C         1 MOL       0.0000
   1091 C361        17.8630     2.3080    14.2767 C         1 MOL       0.0000
   1092 C362        14.5328    -5.7165    25.4604 C         1 MOL       0.0000
   1093 H315        11.5218    -2.2544    26.2370 H         1 MOL       0.0000
   1094 H316        12.8838    -3.7096    24.3168 H         1 MOL       0.0000
   1095 H317        15.4994    -4.1062    24.3495 H         1 MOL       0.0000
   1096 H318        16.1373     4.8570    15.6192 H         1 MOL       0.0000
   1097 H319        16.2248    -4.4322    25.9305 H         1 MOL       0.0000
   1098 H320        15.8555     3.1586    16.2313 H         1 MOL       0.0000
   1099 H321        16.4964    -5.5655    24.5833 H         1 MOL       0.0000
   1100 H322        14.0906    -6.2344    24.6010 H         1 MOL       0.0000
   1101 H323        17.4011     3.9523    16.4355 H         1 MOL       0.0000
   1102 H324        18.3322     1.7162    15.0517 H         1 MOL       0.0000
   1103 H325        14.7689    -6.4774    26.2119 H         1 MOL       0.0000
   1104 N57         25.0100    -7.8464    13.4461 N         1 MOL       0.0000
   1105 C363        11.7826    -7.2841    14.8577 C         1 MOL       0.0000
   1106 C364        20.9664   -13.4178    24.3570 C         1 MOL       0.0000
   1107 O233        25.1559    -8.2318    15.9292 O         1 MOL       0.0000
   1108 O234        19.6887     4.5162    14.3384 O         1 MOL       0.0000
   1109 O235        12.6920    -0.7702    24.2252 O         1 MOL       0.0000
   1110 O236        15.1918    -1.6856    24.4378 O         1 MOL       0.0000
   1111 F61         11.5197    -5.8232    15.0867 F         1 MOL       0.0000
   1112 F62         22.1035   -12.7742    24.9945 F         1 MOL       0.0000
   1113 F63         12.4727    -7.3700    13.7045 F         1 MOL       0.0000
   1114 F64         11.9852    -7.7845    16.2070 F         1 MOL       0.0000
   1115 F65         20.0292   -12.5319    24.3497 F         1 MOL       0.0000
   1116 F66         14.7217     1.0763    22.6960 F         1 MOL       0.0000
   1117 S21         25.7678    -8.6512    14.6387 S         1 MOL       0.0000
   1118 S22         13.9838    -0.6095    24.8071 S         1 MOL       0.0000
   1119 N58         14.3626    -6.2241    16.2825 N         1 MOL       0.0000
   1120 N59         12.4546    -5.5926    17.1723 N         1 MOL       0.0000
   1121 C365        15.3741    -6.4909    15.2379 C         1 MOL       0.0000
   1122 C366        13.2721    -5.4517    16.1007 C         1 MOL       0.0000
   1123 C367        14.3161    -6.7307    17.5701 C         1 MOL       0.0000
   1124 C368        15.1431    -7.8369    14.5525 C         1 MOL       0.0000
   1125 C369        13.1240    -6.3486    18.1213 C         1 MOL       0.0000
   1126 C370        11.0458    -5.1698    17.2723 C         1 MOL       0.0000
   1127 H326        16.3380    -6.4656    15.7572 H         1 MOL       0.0000
   1128 H327        15.3459    -5.6567    14.5249 H         1 MOL       0.0000
   1129 H328        12.9899    -5.0338    15.1393 H         1 MOL       0.0000
   1130 H329        15.9830    -8.0592    13.8819 H         1 MOL       0.0000
   1131 H330        15.1466    -7.2982    17.9587 H         1 MOL       0.0000
   1132 H331        10.9408    -4.4597    18.0947 H         1 MOL       0.0000
   1133 H332        10.7547    -4.6787    16.3386 H         1 MOL       0.0000
   1134 H333        15.0272    -8.6582    15.2700 H         1 MOL       0.0000
   1135 H334        12.7043    -6.5482    19.0970 H         1 MOL       0.0000
   1136 H335        14.2573    -7.8138    13.9137 H         1 MOL       0.0000
   1137 H336        10.3882    -6.0431    17.3975 H         1 MOL       0.0000
   1138 N60         10.8257    -7.0853    14.6774 N         1 MOL       0.0000
   1139 C371        19.0420     4.9621    15.9182 C         1 MOL       0.0000
   1140 C372        21.0972   -14.2945    25.4308 C         1 MOL       0.0000
   1141 O237        11.5219    -4.8799    13.5431 O         1 MOL       0.0000
   1142 O238        12.3756    -8.9793    16.2450 O         1 MOL       0.0000
   1143 O239         7.7136   -13.9405    25.3977 O         1 MOL       0.0000
   1144 O240        21.0833     4.4706    13.9712 O         1 MOL       0.0000
   1145 F67         25.3308    -9.1821    17.2661 F         1 MOL       0.0000
   1146 F68         19.9354   -13.6508    26.0445 F         1 MOL       0.0000
   1147 F69         17.9962     5.2321    14.9739 F         1 MOL       0.0000
   1148 F70         18.9990     3.6027    16.1856 F         1 MOL       0.0000
   1149 F71         21.5818   -13.9007    24.0524 F         1 MOL       0.0000
   1150 F72         14.4214    -1.3574    25.3849 F         1 MOL       0.0000
   1151 S23         11.3451    -6.3332    13.2895 S         1 MOL       0.0000
   1152 S24          4.8041     5.8922    15.0727 S         1 MOL       0.0000
   1153 Ti49         6.6276    16.2858    11.2794 Ti        1 MOL       0.0000
   1154 Ti50        17.4580    19.1670     1.9146 Ti        1 MOL       0.0000
   1155 Ti51        10.7242    12.3496     9.4594 Ti        1 MOL       0.0000
   1156 Ti52        12.2354    21.5117     3.6864 Ti        1 MOL       0.0000
   1157 Ti53        11.2369    23.1900     1.7820 Ti        1 MOL       0.0000
   1158 Ti54        12.6125    12.0952    11.4128 Ti        1 MOL       0.0000
   1159 Ti55         7.5768    14.5499     9.3879 Ti        1 MOL       0.0000
   1160 Ti56        15.4702    19.4695     3.7621 Ti        1 MOL       0.0000
   1161 H337         7.1294    20.1828    11.0599 H         1 MOL       0.0000
   1162 H338        18.2668    15.2609     2.2353 H         1 MOL       0.0000
   1163 H339         2.6677    15.5291    10.8970 H         1 MOL       0.0000
   1164 H340        20.8402    21.1713     2.1152 H         1 MOL       0.0000
   1165 H341        13.5881     8.0607    11.0269 H         1 MOL       0.0000
   1166 H342         7.1783    22.6001     2.1040 H         1 MOL       0.0000
   1167 H343         7.0963    14.4872    13.0039 H         1 MOL       0.0000
   1168 H344        15.5825    18.9243     0.2147 H         1 MOL       0.0000
   1169 H345        13.1224    11.4281     5.9017 H         1 MOL       0.0000
   1170 H346        10.5120    23.3487     7.3053 H         1 MOL       0.0000
   1171 H347         3.5041    17.9385     9.0320 H         1 MOL       0.0000
   1172 H348        20.2128    17.0826     4.2206 H         1 MOL       0.0000
   1173 H349         5.8052    16.4911     5.6982 H         1 MOL       0.0000
   1174 H350         8.1368    25.0179     4.1352 H         1 MOL       0.0000
   1175 H351        11.6291    26.2928     2.6375 H         1 MOL       0.0000
   1176 H352        18.1090    13.2421     3.4378 H         1 MOL       0.0000
   1177 H353        14.3281    21.1918     2.3478 H         1 MOL       0.0000
   1178 H354         9.6435    14.1980    10.7530 H         1 MOL       0.0000
   1179 H355        16.8472    14.0301     9.8025 H         1 MOL       0.0000
   1180 H356        15.3661    13.5610    10.5498 H         1 MOL       0.0000
   1181 H357        17.4213    18.4637     8.7035 H         1 MOL       0.0000
   1182 H358        16.8516    18.8223     7.0850 H         1 MOL       0.0000
   1183 H359        16.3584     9.0752     9.6124 H         1 MOL       0.0000
   1184 H360        15.0792    10.1758    10.0698 H         1 MOL       0.0000
   1185 C373        18.0361    18.4257     4.7781 C         1 MOL       0.0000
   1186 C374         5.6670    16.5472     8.4324 C         1 MOL       0.0000
   1187 C375        13.3048    11.3389     8.5347 C         1 MOL       0.0000
   1188 C376        10.2993    23.4822     4.6457 C         1 MOL       0.0000
   1189 C377        18.9321    17.8214     5.7733 C         1 MOL       0.0000
   1190 C378         4.7351    17.1722     7.4553 C         1 MOL       0.0000
   1191 C379        14.2450    10.7245     7.5875 C         1 MOL       0.0000
   1192 C380         9.4095    24.1290     5.6455 C         1 MOL       0.0000
   1193 C381        18.6833    17.8963     7.1797 C         1 MOL       0.0000
   1194 C382         4.9515    17.0522     6.0673 C         1 MOL       0.0000
   1195 C383        15.3744     9.9642     8.0406 C         1 MOL       0.0000
   1196 C384         8.3148    24.9020     5.2006 C         1 MOL       0.0000
   1197 C385         9.6640    23.9582     7.0004 C         1 MOL       0.0000
   1198 C386        13.9972    10.8566     6.2036 C         1 MOL       0.0000
   1199 C387        20.0658    17.1224     5.2976 C         1 MOL       0.0000
   1200 C388         3.6349    17.8646     7.9540 C         1 MOL       0.0000
   1201 C389        18.2478    15.3400     0.0912 C         1 MOL       0.0000
   1202 C390        11.7781    27.1316     0.1162 C         1 MOL       0.0000
   1203 C391        16.0973    14.0371    13.0602 C         1 MOL       0.0000
   1204 C392         2.7390    15.5795    13.0408 C         1 MOL       0.0000
   1205 C393        12.9822    19.1685     5.6510 C         1 MOL       0.0000
   1206 C394         8.2261    12.0742     7.5691 C         1 MOL       0.0000
   1207 C395        13.4770     9.7288    13.1630 C         1 MOL       0.0000
   1208 C396        11.6854    25.6981     0.0787 C         1 MOL       0.0000
   1209 C397        14.7995    13.4203    13.1070 C         1 MOL       0.0000
   1210 C398         4.1413    15.9939    13.0653 C         1 MOL       0.0000
   1211 C399        18.2872    14.6709     1.3209 C         1 MOL       0.0000
   1212 C400         7.1404    20.7713    11.9738 C         1 MOL       0.0000
   1213 C401         5.3876    21.9349     1.1091 C         1 MOL       0.0000
   1214 C402         2.1062    15.3498    11.8123 C         1 MOL       0.0000
   1215 C403        16.7919    14.3054    11.8268 C         1 MOL       0.0000
   1216 C404         6.6768    22.4151     1.1583 C         1 MOL       0.0000
   1217 C405        13.6297     7.5335    11.9759 C         1 MOL       0.0000
   1218 C406        18.3089    13.2698     1.4025 C         1 MOL       0.0000
   1219 N61         18.3639    12.6709     2.6406 N         1 MOL       0.0000
   1220 N62         16.2129    14.1226    10.5878 N         1 MOL       0.0000
   1221 N63         17.6025    18.5426     7.7110 N         1 MOL       0.0000
   1222 N64         15.7054     9.8060     9.3580 N         1 MOL       0.0000
   1223 O241        16.8598    18.8308     5.1439 O         1 MOL       0.0000
   1224 O242         6.4360    15.5963     8.0341 O         1 MOL       0.0000
   1225 O243        13.6862    11.4633     9.7558 O         1 MOL       0.0000
   1226 O244        10.2335    23.9119     3.4461 O         1 MOL       0.0000
   1227 O245        11.0698    22.5250     5.0322 O         1 MOL       0.0000
   1228 O246        12.1343    11.7073     8.1292 O         1 MOL       0.0000
   1229 O247        18.4480    18.5065     3.5664 O         1 MOL       0.0000
   1230 O248         5.6250    16.9834     9.6321 O         1 MOL       0.0000
   1231 O249        15.7754    18.2516     2.5674 O         1 MOL       0.0000
   1232 O250         8.1292    16.1102    10.1324 O         1 MOL       0.0000
   1233 O251        16.7142    20.5389     3.0173 O         1 MOL       0.0000
   1234 O252         6.3770    14.3855    10.6251 O         1 MOL       0.0000
   1235 O253        10.9835    11.1776    10.7198 O         1 MOL       0.0000
   1236 O254        12.7520    23.0730     2.9479 O         1 MOL       0.0000
   1237 O255        11.9375    13.4391    10.2557 O         1 MOL       0.0000
   1238 O256        11.0458    21.3159     2.4305 O         1 MOL       0.0000
   1239 O257        14.2033    18.9886     5.2967 O         1 MOL       0.0000
   1240 O258         7.5684    13.1091     7.9473 O         1 MOL       0.0000
   1241 O259        13.3548    10.3234    12.0219 O         1 MOL       0.0000
   1242 O260        11.6023    24.9966     1.1739 O         1 MOL       0.0000
   1243 O261        14.1569    13.1115    12.0168 O         1 MOL       0.0000
   1244 O262         9.3663    23.1609     1.1138 O         1 MOL       0.0000
   1245 O263         9.3879    11.7796     8.0269 O         1 MOL       0.0000
   1246 O264        12.2403    20.0894     5.1576 O         1 MOL       0.0000
   1247 O265        18.8951    20.1861     1.1600 O         1 MOL       0.0000
   1248 O266         4.7408    16.2257    11.9478 O         1 MOL       0.0000
   1249 O267        18.0995    17.4318     1.1894 O         1 MOL       0.0000
   1250 O268         7.0090    18.0080    12.0291 O         1 MOL       0.0000
   1251 O269        13.9672    20.6431     3.0684 O         1 MOL       0.0000
   1252 O270         9.2653    13.6393    10.0495 O         1 MOL       0.0000
   1253 O271        16.4213    19.4179     0.1356 O         1 MOL       0.0000
   1254 O272         7.2187    15.4540    13.0639 O         1 MOL       0.0000
   1255 H361        13.1830    15.5180     8.5530 H         1 MOL       0.0000
   1256 H362         2.8782    24.6709     6.1428 H         1 MOL       0.0000
   1257 H363        13.9371    24.2710     5.6136 H         1 MOL       0.0000
   1258 H364        14.1806    17.0612     6.8369 H         1 MOL       0.0000
   1259 H365         9.5258    17.7841     8.4641 H         1 MOL       0.0000
   1260 H366        21.6137    11.4056     7.0462 H         1 MOL       0.0000
   1261 H367        10.8564    15.8863     9.3280 H         1 MOL       0.0000
   1262 H368        10.5236    19.3241     6.7420 H         1 MOL       0.0000
   1263 H369        15.2725    22.5009     4.4974 H         1 MOL       0.0000
   1264 H370        17.7283    22.4069     4.7829 H         1 MOL       0.0000
   1265 C407        12.4055    18.2745     6.6827 C         1 MOL       0.0000
   1266 C408        11.2954    16.5606     8.5947 C         1 MOL       0.0000
   1267 C409        15.7707    23.2416     5.1218 C         1 MOL       0.0000
   1268 C410         7.5695    11.1099     6.6529 C         1 MOL       0.0000
   1269 C411        11.0914    18.4868     7.1427 C         1 MOL       0.0000
   1270 C412        12.6091    16.3524     8.1526 C         1 MOL       0.0000
   1271 C413        15.0184    24.2477     5.7402 C         1 MOL       0.0000
   1272 C414         1.8023    24.7032     5.9832 C         1 MOL       0.0000
   1273 C415        17.1608    23.1932     5.2784 C         1 MOL       0.0000
   1274 C416        22.1750    10.6091     6.5629 C         1 MOL       0.0000
   1275 C417        13.1655    17.2073     7.2005 C         1 MOL       0.0000
   1276 C418        10.5404    17.6316     8.0983 C         1 MOL       0.0000
   1277 N65         15.1184    25.0020     1.3151 N         1 MOL       0.0000
   1278 N66         11.6190    16.8305    12.9033 N         1 MOL       0.0000
   1279 C419        14.8713    25.5937     0.0873 C         1 MOL       0.0000
   1280 C420        10.9298    17.8270    12.2350 C         1 MOL       0.0000
   1281 C421        13.8784    16.7753    11.9051 C         1 MOL       0.0000
   1282 C422        14.6643    25.5317     2.6116 C         1 MOL       0.0000
   1283 C423        15.9810    23.9870     1.1247 C         1 MOL       0.0000
   1284 C424        12.6508    15.9625    12.3084 C         1 MOL       0.0000
   1285 H371         9.6398    19.4246    13.0850 H         1 MOL       0.0000
   1286 H372        11.0018    17.9694    11.1648 H         1 MOL       0.0000
   1287 H373        13.6174    17.5728    11.1975 H         1 MOL       0.0000
   1288 H374        14.2553    26.5360     2.4672 H         1 MOL       0.0000
   1289 H375        14.3428    17.2468    12.7785 H         1 MOL       0.0000
   1290 H376        13.9735    24.8376     3.0793 H         1 MOL       0.0000
   1291 H377        14.6144    16.1135    11.4313 H         1 MOL       0.0000
   1292 H378        12.2086    15.4446    11.4490 H         1 MOL       0.0000
   1293 H379        15.5191    25.6313     3.2835 H         1 MOL       0.0000
   1294 H380        16.4502    23.3952     1.8997 H         1 MOL       0.0000
   1295 H381        12.8869    15.2016    13.0599 H         1 MOL       0.0000
   1296 N67         23.1280    13.8326     0.2941 N         1 MOL       0.0000
   1297 C425         9.9006    14.3949     1.7057 C         1 MOL       0.0000
   1298 C426        19.0844     8.2612    11.2050 C         1 MOL       0.0000
   1299 O273        23.2739    13.4472     2.7772 O         1 MOL       0.0000
   1300 O274        17.8067    26.1952     1.1864 O         1 MOL       0.0000
   1301 O275        10.8100    20.9088    11.0732 O         1 MOL       0.0000
   1302 O276        13.3098    19.9934    11.2858 O         1 MOL       0.0000
   1303 F73          9.6377    15.8558     1.9347 F         1 MOL       0.0000
   1304 F74         20.2215     8.9048    11.8425 F         1 MOL       0.0000
   1305 F75         10.5907    14.3090     0.5525 F         1 MOL       0.0000
   1306 F76         10.1032    13.8945     3.0550 F         1 MOL       0.0000
   1307 F77         18.1472     9.1471    11.1977 F         1 MOL       0.0000
   1308 F78         12.8397    22.7553     9.5440 F         1 MOL       0.0000
   1309 S25         23.8858    13.0278     1.4867 S         1 MOL       0.0000
   1310 S26         12.1018    21.0695    11.6551 S         1 MOL       0.0000
   1311 N68         12.4806    15.4549     3.1305 N         1 MOL       0.0000
   1312 N69         10.5726    16.0864     4.0203 N         1 MOL       0.0000
   1313 C427        13.4921    15.1881     2.0859 C         1 MOL       0.0000
   1314 C428        11.3901    16.2273     2.9487 C         1 MOL       0.0000
   1315 C429        12.4341    14.9483     4.4181 C         1 MOL       0.0000
   1316 C430        13.2611    13.8421     1.4005 C         1 MOL       0.0000
   1317 C431        11.2420    15.3304     4.9693 C         1 MOL       0.0000
   1318 C432         9.1638    16.5092     4.1203 C         1 MOL       0.0000
   1319 H382        14.4560    15.2134     2.6052 H         1 MOL       0.0000
   1320 H383        13.4639    16.0223     1.3729 H         1 MOL       0.0000
   1321 H384        11.1079    16.6452     1.9873 H         1 MOL       0.0000
   1322 H385        14.1010    13.6198     0.7299 H         1 MOL       0.0000
   1323 H386        13.2646    14.3808     4.8067 H         1 MOL       0.0000
   1324 H387         9.0588    17.2193     4.9427 H         1 MOL       0.0000
   1325 H388         8.8727    17.0003     3.1866 H         1 MOL       0.0000
   1326 H389        13.1452    13.0208     2.1180 H         1 MOL       0.0000
   1327 H390        10.8223    15.1308     5.9450 H         1 MOL       0.0000
   1328 H391        12.3753    13.8652     0.7617 H         1 MOL       0.0000
   1329 H392         8.5062    15.6359     4.2455 H         1 MOL       0.0000
   1330 N70          8.9437    14.5937     1.5254 N         1 MOL       0.0000
   1331 C433        17.1600    26.6411     2.7662 C         1 MOL       0.0000
   1332 C434        19.2152     7.3845    12.2788 C         1 MOL       0.0000
   1333 O277         9.6399    16.7991     0.3911 O         1 MOL       0.0000
   1334 O278        10.4936    12.6997     3.0930 O         1 MOL       0.0000
   1335 O279         5.8316     7.7385    12.2457 O         1 MOL       0.0000
   1336 O280        19.2013    26.1496     0.8192 O         1 MOL       0.0000
   1337 F79         23.4488    12.4969     4.1141 F         1 MOL       0.0000
   1338 F80         18.0534     8.0282    12.8925 F         1 MOL       0.0000
   1339 F81         16.1142    26.9111     1.8219 F         1 MOL       0.0000
   1340 F82         17.1170    25.2817     3.0336 F         1 MOL       0.0000
   1341 F83         19.6998     7.7783    10.9004 F         1 MOL       0.0000
   1342 F84         12.5394    20.3216    12.2329 F         1 MOL       0.0000
   1343 S27          9.4631    15.3458     0.1375 S         1 MOL       0.0000
   1344 S28          2.9221    27.5712     1.9207 S         1 MOL       0.0000
   1345 Ti57         1.9926     9.2198    24.3744 Ti        1 MOL       0.0000
   1346 Ti58        12.8230    12.1010    15.0096 Ti        1 MOL       0.0000
   1347 Ti59         6.0892     5.2836    22.5544 Ti        1 MOL       0.0000
   1348 Ti60         7.6004    14.4457    16.7814 Ti        1 MOL       0.0000
   1349 Ti61         6.6019    16.1240    14.8770 Ti        1 MOL       0.0000
   1350 Ti62         7.9775     5.0292    24.5078 Ti        1 MOL       0.0000
   1351 Ti63         2.9418     7.4839    22.4829 Ti        1 MOL       0.0000
   1352 Ti64        10.8352    12.4035    16.8571 Ti        1 MOL       0.0000
   1353 H393         2.4944    13.1168    24.1549 H         1 MOL       0.0000
   1354 H394        13.6318     8.1949    15.3303 H         1 MOL       0.0000
   1355 H395        -1.9673     8.4631    23.9920 H         1 MOL       0.0000
   1356 H396        16.2052    14.1053    15.2102 H         1 MOL       0.0000
   1357 H397         8.9531     0.9947    24.1219 H         1 MOL       0.0000
   1358 H398         2.5433    15.5341    15.1991 H         1 MOL       0.0000
   1359 H399         2.4613     7.4212    26.0989 H         1 MOL       0.0000
   1360 H400        10.9475    11.8583    13.3096 H         1 MOL       0.0000
   1361 H401         8.4874     4.3621    18.9967 H         1 MOL       0.0000
   1362 H402         5.8770    16.2827    20.4003 H         1 MOL       0.0000
   1363 H403        -1.1309    10.8725    22.1270 H         1 MOL       0.0000
   1364 H404        15.5778    10.0166    17.3156 H         1 MOL       0.0000
   1365 H405         1.1702     9.4251    18.7932 H         1 MOL       0.0000
   1366 H406         3.5018    17.9519    17.2302 H         1 MOL       0.0000
   1367 H407         6.9941    19.2268    15.7325 H         1 MOL       0.0000
   1368 H408        13.4740     6.1761    16.5328 H         1 MOL       0.0000
   1369 H409         9.6931    14.1258    15.4428 H         1 MOL       0.0000
   1370 H410         5.0085     7.1320    23.8480 H         1 MOL       0.0000
   1371 H411        12.2122     6.9641    22.8975 H         1 MOL       0.0000
   1372 H412        10.7311     6.4950    23.6448 H         1 MOL       0.0000
   1373 H413        12.7863    11.3977    21.7985 H         1 MOL       0.0000
   1374 H414        12.2166    11.7563    20.1800 H         1 MOL       0.0000
   1375 H415        11.7234     2.0092    22.7074 H         1 MOL       0.0000
   1376 H416        10.4442     3.1098    23.1648 H         1 MOL       0.0000
   1377 C435        13.4011    11.3597    17.8731 C         1 MOL       0.0000
   1378 C436         1.0320     9.4811    21.5274 C         1 MOL       0.0000
   1379 C437         8.6698     4.2729    21.6297 C         1 MOL       0.0000
   1380 C438         5.6643    16.4162    17.7407 C         1 MOL       0.0000
   1381 C439        14.2971    10.7554    18.8683 C         1 MOL       0.0000
   1382 C440         0.1001    10.1062    20.5503 C         1 MOL       0.0000
   1383 C441         9.6100     3.6585    20.6825 C         1 MOL       0.0000
   1384 C442         4.7745    17.0630    18.7405 C         1 MOL       0.0000
   1385 C443        14.0483    10.8303    20.2747 C         1 MOL       0.0000
   1386 C444         0.3165     9.9862    19.1623 C         1 MOL       0.0000
   1387 C445        10.7394     2.8982    21.1356 C         1 MOL       0.0000
   1388 C446         3.6798    17.8360    18.2956 C         1 MOL       0.0000
   1389 C447         5.0290    16.8923    20.0954 C         1 MOL       0.0000
   1390 C448         9.3622     3.7906    19.2986 C         1 MOL       0.0000
   1391 C449        15.4308    10.0564    18.3926 C         1 MOL       0.0000
   1392 C450        -1.0001    10.7986    21.0490 C         1 MOL       0.0000
   1393 C451        13.6128     8.2740    13.1862 C         1 MOL       0.0000
   1394 C452         7.1431    20.0656    13.2112 C         1 MOL       0.0000
   1395 C453        11.4623     6.9711    26.1552 C         1 MOL       0.0000
   1396 C454        -1.8960     8.5135    26.1358 C         1 MOL       0.0000
   1397 C455         8.3472    12.1025    18.7460 C         1 MOL       0.0000
   1398 C456         3.5911     5.0082    20.6641 C         1 MOL       0.0000
   1399 C457         8.8420     2.6628    26.2580 C         1 MOL       0.0000
   1400 C458         7.0504    18.6321    13.1737 C         1 MOL       0.0000
   1401 C459        10.1645     6.3543    26.2020 C         1 MOL       0.0000
   1402 C460        -0.4937     8.9279    26.1603 C         1 MOL       0.0000
   1403 C461        13.6522     7.6049    14.4159 C         1 MOL       0.0000
   1404 C462         2.5054    13.7053    25.0688 C         1 MOL       0.0000
   1405 C463         0.7526    14.8689    14.2041 C         1 MOL       0.0000
   1406 C464        -2.5288     8.2838    24.9073 C         1 MOL       0.0000
   1407 C465        12.1569     7.2394    24.9218 C         1 MOL       0.0000
   1408 C466         2.0418    15.3491    14.2533 C         1 MOL       0.0000
   1409 C467         8.9947     0.4675    25.0709 C         1 MOL       0.0000
   1410 C468        13.6739     6.2038    14.4975 C         1 MOL       0.0000
   1411 N71         13.7289     5.6049    15.7356 N         1 MOL       0.0000
   1412 N72         11.5779     7.0566    23.6828 N         1 MOL       0.0000
   1413 N73         12.9675    11.4766    20.8060 N         1 MOL       0.0000
   1414 N74         11.0704     2.7400    22.4530 N         1 MOL       0.0000
   1415 O281        12.2248    11.7648    18.2389 O         1 MOL       0.0000
   1416 O282         1.8010     8.5303    21.1291 O         1 MOL       0.0000
   1417 O283         9.0512     4.3973    22.8508 O         1 MOL       0.0000
   1418 O284         5.5985    16.8459    16.5412 O         1 MOL       0.0000
   1419 O285         6.4348    15.4590    18.1272 O         1 MOL       0.0000
   1420 O286         7.4993     4.6413    21.2242 O         1 MOL       0.0000
   1421 O287        13.8130    11.4405    16.6614 O         1 MOL       0.0000
   1422 O288         0.9900     9.9174    22.7271 O         1 MOL       0.0000
   1423 O289        11.1404    11.1856    15.6624 O         1 MOL       0.0000
   1424 O290         3.4942     9.0442    23.2274 O         1 MOL       0.0000
   1425 O291        12.0792    13.4729    16.1123 O         1 MOL       0.0000
   1426 O292         1.7420     7.3195    23.7201 O         1 MOL       0.0000
   1427 O293         6.3486     4.1116    23.8148 O         1 MOL       0.0000
   1428 O294         8.1170    16.0070    16.0429 O         1 MOL       0.0000
   1429 O295         7.3025     6.3731    23.3507 O         1 MOL       0.0000
   1430 O296         6.4108    14.2499    15.5255 O         1 MOL       0.0000
   1431 O297         9.5683    11.9226    18.3917 O         1 MOL       0.0000
   1432 O298         2.9334     6.0431    21.0423 O         1 MOL       0.0000
   1433 O299         8.7198     3.2574    25.1169 O         1 MOL       0.0000
   1434 O300         6.9673    17.9306    14.2689 O         1 MOL       0.0000
   1435 O301         9.5219     6.0455    25.1118 O         1 MOL       0.0000
   1436 O302         4.7313    16.0949    14.2088 O         1 MOL       0.0000
   1437 O303         4.7529     4.7136    21.1219 O         1 MOL       0.0000
   1438 O304         7.6053    13.0234    18.2526 O         1 MOL       0.0000
   1439 O305        14.2601    13.1201    14.2550 O         1 MOL       0.0000
   1440 O306         0.1058     9.1597    25.0428 O         1 MOL       0.0000
   1441 O307        13.4645    10.3658    14.2844 O         1 MOL       0.0000
   1442 O308         2.3740    10.9420    25.1241 O         1 MOL       0.0000
   1443 O309         9.3322    13.5771    16.1634 O         1 MOL       0.0000
   1444 O310         4.6303     6.5733    23.1445 O         1 MOL       0.0000
   1445 O311        11.7863    12.3519    13.2306 O         1 MOL       0.0000
   1446 O312         2.5837     8.3880    26.1589 O         1 MOL       0.0000
   1447 H417         8.5480     8.4520    21.6480 H         1 MOL       0.0000
   1448 H418        -1.7568    17.6049    19.2378 H         1 MOL       0.0000
   1449 H419         9.3021    17.2050    18.7086 H         1 MOL       0.0000
   1450 H420         9.5456     9.9952    19.9319 H         1 MOL       0.0000
   1451 H421         4.8908    10.7181    21.5591 H         1 MOL       0.0000
   1452 H422        16.9787     4.3396    20.1412 H         1 MOL       0.0000
   1453 H423         6.2214     8.8203    22.4230 H         1 MOL       0.0000
   1454 H424         5.8886    12.2581    19.8370 H         1 MOL       0.0000
   1455 H425        10.6375    15.4349    17.5924 H         1 MOL       0.0000
   1456 H426        13.0933    15.3409    17.8779 H         1 MOL       0.0000
   1457 C469         7.7705    11.2085    19.7777 C         1 MOL       0.0000
   1458 C470         6.6604     9.4946    21.6897 C         1 MOL       0.0000
   1459 C471        11.1357    16.1756    18.2168 C         1 MOL       0.0000
   1460 C472         2.9345     4.0439    19.7479 C         1 MOL       0.0000
   1461 C473         6.4564    11.4208    20.2377 C         1 MOL       0.0000
   1462 C474         7.9741     9.2864    21.2476 C         1 MOL       0.0000
   1463 C475        10.3834    17.1817    18.8352 C         1 MOL       0.0000
   1464 C476        -2.8327    17.6372    19.0782 C         1 MOL       0.0000
   1465 C477        12.5258    16.1272    18.3734 C         1 MOL       0.0000
   1466 C478        17.5400     3.5431    19.6579 C         1 MOL       0.0000
   1467 C479         8.5305    10.1413    20.2955 C         1 MOL       0.0000
   1468 C480         5.9054    10.5656    21.1933 C         1 MOL       0.0000
   1469 N75         10.4834    17.9360    14.4101 N         1 MOL       0.0000
   1470 N76          6.9840     9.7645    25.9983 N         1 MOL       0.0000
   1471 C481        10.2363    18.5277    13.1823 C         1 MOL       0.0000
   1472 C482         6.2948    10.7610    25.3300 C         1 MOL       0.0000
   1473 C483         9.2434     9.7093    25.0001 C         1 MOL       0.0000
   1474 C484        10.0293    18.4657    15.7066 C         1 MOL       0.0000
   1475 C485        11.3460    16.9210    14.2197 C         1 MOL       0.0000
   1476 C486         8.0158     8.8965    25.4034 C         1 MOL       0.0000
   1477 H427         5.0048    12.3586    26.1800 H         1 MOL       0.0000
   1478 H428         6.3668    10.9034    24.2598 H         1 MOL       0.0000
   1479 H429         8.9824    10.5068    24.2925 H         1 MOL       0.0000
   1480 H430         9.6203    19.4700    15.5622 H         1 MOL       0.0000
   1481 H431         9.7078    10.1808    25.8735 H         1 MOL       0.0000
   1482 H432         9.3385    17.7716    16.1743 H         1 MOL       0.0000
   1483 H433         9.9794     9.0475    24.5263 H         1 MOL       0.0000
   1484 H434         7.5736     8.3786    24.5440 H         1 MOL       0.0000
   1485 H435        10.8841    18.5653    16.3785 H         1 MOL       0.0000
   1486 H436        11.8152    16.3292    14.9947 H         1 MOL       0.0000
   1487 H437         8.2519     8.1356    26.1549 H         1 MOL       0.0000
   1488 N77         18.4930     6.7666    13.3891 N         1 MOL       0.0000
   1489 C487         5.2656     7.3289    14.8007 C         1 MOL       0.0000
   1490 C488        14.4494     1.1952    24.3000 C         1 MOL       0.0000
   1491 O313        18.6389     6.3812    15.8722 O         1 MOL       0.0000
   1492 O314        13.1717    19.1292    14.2814 O         1 MOL       0.0000
   1493 O315         6.1750    13.8428    24.1682 O         1 MOL       0.0000
   1494 O316         8.6748    12.9274    24.3808 O         1 MOL       0.0000
   1495 F85          5.0027     8.7898    15.0297 F         1 MOL       0.0000
   1496 F86         15.5865     1.8388    24.9375 F         1 MOL       0.0000
   1497 F87          5.9557     7.2430    13.6475 F         1 MOL       0.0000
   1498 F88          5.4682     6.8285    16.1500 F         1 MOL       0.0000
   1499 F89         13.5122     2.0811    24.2927 F         1 MOL       0.0000
   1500 F90          8.2047    15.6893    22.6390 F         1 MOL       0.0000
   1501 S29         19.2508     5.9618    14.5817 S         1 MOL       0.0000
   1502 S30          7.4668    14.0035    24.7501 S         1 MOL       0.0000
   1503 N78          7.8456     8.3889    16.2255 N         1 MOL       0.0000
   1504 N79          5.9376     9.0204    17.1153 N         1 MOL       0.0000
   1505 C489         8.8571     8.1221    15.1809 C         1 MOL       0.0000
   1506 C490         6.7551     9.1613    16.0437 C         1 MOL       0.0000
   1507 C491         7.7991     7.8823    17.5131 C         1 MOL       0.0000
   1508 C492         8.6261     6.7761    14.4955 C         1 MOL       0.0000
   1509 C493         6.6070     8.2644    18.0643 C         1 MOL       0.0000
   1510 C494         4.5288     9.4432    17.2153 C         1 MOL       0.0000
   1511 H438         9.8210     8.1474    15.7002 H         1 MOL       0.0000
   1512 H439         8.8289     8.9563    14.4679 H         1 MOL       0.0000
   1513 H440         6.4729     9.5792    15.0823 H         1 MOL       0.0000
   1514 H441         9.4660     6.5538    13.8249 H         1 MOL       0.0000
   1515 H442         8.6296     7.3148    17.9017 H         1 MOL       0.0000
   1516 H443         4.4238    10.1533    18.0377 H         1 MOL       0.0000
   1517 H444         4.2377     9.9343    16.2816 H         1 MOL       0.0000
   1518 H445         8.5102     5.9548    15.2130 H         1 MOL       0.0000
   1519 H446         6.1873     8.0648    19.0400 H         1 MOL       0.0000
   1520 H447         7.7403     6.7992    13.8567 H         1 MOL       0.0000
   1521 H448         3.8712     8.5699    17.3405 H         1 MOL       0.0000
   1522 N80          4.3087     7.5277    14.6204 N         1 MOL       0.0000
   1523 C495        12.5250    19.5751    15.8612 C         1 MOL       0.0000
   1524 C496        14.5802     0.3185    25.3738 C         1 MOL       0.0000
   1525 O317         5.0049     9.7331    13.4861 O         1 MOL       0.0000
   1526 O318         5.8586     5.6337    16.1880 O         1 MOL       0.0000
   1527 O319         1.1966     0.6725    25.3407 O         1 MOL       0.0000
   1528 O320        14.5663    19.0836    13.9142 O         1 MOL       0.0000
   1529 F91         18.8138     5.4309    17.2091 F         1 MOL       0.0000
   1530 F92         13.4184     0.9622    25.9875 F         1 MOL       0.0000
   1531 F93         11.4792    19.8451    14.9169 F         1 MOL       0.0000
   1532 F94         12.4820    18.2157    16.1286 F         1 MOL       0.0000
   1533 F95         15.0648     0.7123    23.9954 F         1 MOL       0.0000
   1534 F96          7.9044    13.2556    25.3279 F         1 MOL       0.0000
   1535 S31          4.8281     8.2798    13.2325 S         1 MOL       0.0000
   1536 S32         -1.7129    20.5052    15.0157 S         1 MOL       0.0000
@<TRIPOS>BOND
     1     1    78 1
     2     1    96 1
     3     7    88 1
     4     7   100 1
     5     1     7 1
     6     1    80 1
     7     1    82 1
     8     7    72 1
     9     7    80 1
    10     7    82 1
    11     1   102 1
    12     1   197 1
    13     1    98 1
    14     2     8 1
    15     2    79 1
    16     2    81 1
    17     2   101 1
    18     2    97 1
    19     2    77 1
    20     2    95 1
    21     3    93 1
    22     3   100 1
    23     3    76 1
    24     3    83 1
    25     3    85 1
    26     3     6 1
    27     4    86 1
    28     4    94 1
    29     4     5 1
    30     4    84 1
    31     4    75 1
    32     4    99 1
    33     5    92 1
    34     5    86 1
    35     5    74 1
    36     5    84 1
    37     5    90 1
    38     6    83 1
    39     6    85 1
    40     6   194 1
    41     6   293 1
    42   194   293 1
    43   208   293 1
    44   194   200 1
    45   194   271 1
    46   194   273 1
    47     6    73 1
    48     6    89 1
    49     6    91 1
    50   194   287 1
    51   194   289 1
    52   194   269 1
    53     8    79 1
    54     8    81 1
    55     8    99 1
    56    16   101 1
    57    25    99 1
    58     8    71 1
    59     8    87 1
    60     9    60 1
    61    59    66 1
    62    10    59 1
    63    49    59 1
    64    34    38 1
    65    34    78 1
    66    11    62 1
    67    34    72 1
    68    12   829 1
    69   829   832 1
    70    31    70 1
    71    32    70 1
    72    43    70 1
    73    13    65 1
    74    14    64 1
    75   197   284 1
    76   197   266 1
    77    15   102 1
    78   102   197 1
    79   197   276 1
    80   197   278 1
    81   197   282 1
    82    17    46 1
    83    36    40 1
    84    45   427 1
    85    36    74 1
    86    18    45 1
    87    36    75 1
    88    19    48 1
    89    20    47 1
    90    47   810 1
    91    21    42 1
    92   166   173 1
    93   166   172 1
    94   166   177 1
    95    22    44 1
    96    40    44 1
    97    44   430 1
    98    40    45 1
    99    56    90 1
   100    23   451 1
   101    50    56 1
   102    50   450 1
   103   408   451 1
   104   450   451 1
   105    24    67 1
   106    66    67 1
   107    26   100 1
   108   118   123 1
   109   103   118 1
   110   107   124 1
   111   109   114 1
   112   114   118 1
   113   114   124 1
   114    35    76 1
   115    39    43 1
   116    39    46 1
   117    35    39 1
   118    35    73 1
   119    27    68 1
   120    28    68 1
   121    29    69 1
   122    30    69 1
   123    33    71 1
   124    37    47 1
   125    41   816 1
   126    33    77 1
   127    33    37 1
   128    37    41 1
   129    41    69 1
   130    38    42 1
   131    38    48 1
   132    51    57 1
   133    57    91 1
   134    57   287 1
   135    51    63 1
   136    51  1021 1
   137    52    58 1
   138    52    62 1
   139    52   256 1
   140    58    96 1
   141    58   284 1
   142   113   123 1
   143   117   124 1
   144    53    94 1
   145    53   113 1
   146   110   117 1
   147   113   117 1
   148    53    87 1
   149    54   116 1
   150    54    88 1
   151    54    93 1
   152   251   258 1
   153    55   241 1
   154    65   241 1
   155   241   251 1
   156    55    89 1
   157    55   289 1
   158    60   242 1
   159    98   248 1
   160   242   248 1
   161   242   642 1
   162   248   282 1
   163   642   643 1
   164    60   449 1
   165    61    64 1
   166   129   132 1
   167    63    68 1
   168   129   135 1
   169   129   137 1
   170   129   139 1
   171    63   830 1
   172  1021  1024 1
   173   104   120 1
   174   105   119 1
   175   111   115 1
   176   115   119 1
   177   119   506 1
   178   115   121 1
   179   506  1268 1
   180   106   123 1
   181   108   122 1
   182   122   884 1
   183   112   121 1
   184   121   888 1
   185   872   888 1
   186   888  1268 1
   187   120   500 1
   188   160   166 1
   189   160   162 1
   190   160   165 1
   191   163   165 1
   192   165   175 1
   193   163   171 1
   194   125   131 1
   195   131   142 1
   196   125   127 1
   197   125   130 1
   198   126   132 1
   199   126   323 1
   200   132   140 1
   201   132   143 1
   202   323   334 1
   203   126   128 1
   204   130   138 1
   205   130   136 1
   206   130   141 1
   207   187   531 1
   208   531   569 1
   209   187   541 1
   210   528   541 1
   211   531   541 1
   212   317   323 1
   213   128   134 1
   214   128   319 1
   215   133   319 1
   216   158   190 1
   217   158   720 1
   218   190   720 1
   219   317   319 1
   220   340   733 1
   221   379   733 1
   222   720   733 1
   223   317   322 1
   224   340   371 1
   225   379   723 1
   226   158   530 1
   227   158   573 1
   228   158   564 1
   229   158   570 1
   230   190   564 1
   231   340   376 1
   232   733  1489 1
   233   340  1152 1
   234   733  1152 1
   235   733  1522 1
   236   149   158 1
   237   144   157 1
   238   147   157 1
   239   147   185 1
   240   157   913 1
   241   157   946 1
   242   145   178 1
   243   145   191 1
   244   151   178 1
   245   151   191 1
   246   153   191 1
   247   181   191 1
   248   145   154 1
   249   145   151 1
   250   145   153 1
   251   159   162 1
   252   162   169 1
   253   159   163 1
   254   159   161 1
   255   146   155 1
   256   146   189 1
   257   146   152 1
   258   146   180 1
   259   179   187 1
   260   179   531 1
   261   179   569 1
   262   179   188 1
   263   148   179 1
   264   148   184 1
   265   148   541 1
   266   148   960 1
   267   179   541 1
   268   179   960 1
   269   184   960 1
   270   541   960 1
   271   541  1297 1
   272   541  1330 1
   273   960  1297 1
   274   960  1306 1
   275   960  1330 1
   276   960  1334 1
   277  1297  1305 1
   278  1297  1306 1
   279  1297  1330 1
   280  1306  1334 1
   281  1297  1303 1
   282  1297  1343 1
   283  1305  1343 1
   284  1330  1343 1
   285   150   158 1
   286   150   190 1
   287  1489  1497 1
   288   376  1152 1
   289  1489  1498 1
   290  1489  1522 1
   291  1489  1535 1
   292  1497  1535 1
   293  1489  1495 1
   294   336   349 1
   295   152   189 1
   296   180   189 1
   297   180   186 1
   298   180   336 1
   299   186   336 1
   300   152  1151 1
   301   180  1151 1
   302  1138  1151 1
   303   154   182 1
   304   415   454 1
   305   156   530 1
   306   156   573 1
   307   530   539 1
   308   530   573 1
   309   530   564 1
   310   530   536 1
   311   161   164 1
   312   161   167 1
   313   161   168 1
   314   164   174 1
   315   164   176 1
   316   164   170 1
   317   178   191 1
   318   183   383 1
   319   345   383 1
   320   356   362 1
   321   356   366 1
   322   183   345 1
   323   356   368 1
   324   192   529 1
   325   192   538 1
   326   192   566 1
   327   529   537 1
   328   529   538 1
   329   538   566 1
   330   192   562 1
   331   529   535 1
   332   529   562 1
   333   529   575 1
   334   537   575 1
   335   193   270 1
   336   193   274 1
   337   193   288 1
   338   193   199 1
   339   193   272 1
   340   193   294 1
   341   207   294 1
   342   218   292 1
   343   193   290 1
   344   195   285 1
   345   195   292 1
   346   195   268 1
   347   195   198 1
   348   195   275 1
   349   195   277 1
   350   198   265 1
   351   198   275 1
   352   198   277 1
   353   198   281 1
   354   198   283 1
   355   196   286 1
   356   196   291 1
   357   196   197 1
   358   196   267 1
   359   196   276 1
   360   196   278 1
   361   297   311 1
   362   199   264 1
   363   199   274 1
   364   199   280 1
   365   199   272 1
   366   199   292 1
   367   200   291 1
   368   200   263 1
   369   200   271 1
   370   200   273 1
   371   200   279 1
   372   201   252 1
   373   252   641 1
   374   202   251 1
   375   212   239 1
   376   239  1002 1
   377   203   254 1
   378   244   254 1
   379   244   250 1
   380   204  1021 1
   381   205   257 1
   382   247   281 1
   383   206   256 1
   384   228   232 1
   385   228   266 1
   386   232   237 1
   387   232   236 1
   388   228   267 1
   389   209   238 1
   390   227   268 1
   391   227   265 1
   392   227   231 1
   393   210   237 1
   394   211   240 1
   395   213   234 1
   396   226   230 1
   397   226   264 1
   398   230   234 1
   399   226   270 1
   400   230   240 1
   401   214   236 1
   402   236   622 1
   403   215   643 1
   404   600   643 1
   405   216   259 1
   406   217   291 1
   407   303   307 1
   408   304   313 1
   409   307   313 1
   410   307   311 1
   411   313  1080 1
   412   243   249 1
   413   219   260 1
   414   243   255 1
   415   255   260 1
   416   255  1022 1
   417   224   262 1
   418   249   283 1
   419   220   260 1
   420   221   261 1
   421   222   261 1
   422   223   262 1
   423   225   263 1
   424   225   269 1
   425   225   229 1
   426   233   261 1
   427   229   239 1
   428   233  1008 1
   429   979  1008 1
   430   229   233 1
   431   231   238 1
   432   235   262 1
   433   231   235 1
   434   237   619 1
   435   619   646 1
   436   245   286 1
   437   245   305 1
   438   245   279 1
   439   246   280 1
   440   246   285 1
   441   246   308 1
   442   250   288 1
   443   253   256 1
   444   258   259 1
   445   295   310 1
   446   301   306 1
   447   306   310 1
   448   310   315 1
   449   306   316 1
   450   296   312 1
   451   298   315 1
   452   299   316 1
   453   300   314 1
   454   305   315 1
   455   302   309 1
   456   305   309 1
   457   309   316 1
   458   311   698 1
   459  1080  1460 1
   460   312   692 1
   461   314  1076 1
   462  1014  1048 1
   463  1014  1076 1
   464  1014  1053 1
   465   318   324 1
   466   321   324 1
   467   324   332 1
   468   324   335 1
   469   318   320 1
   470   321   327 1
   471   321   329 1
   472   321   331 1
   473   320   326 1
   474   341   350 1
   475   342   350 1
   476   342   382 1
   477   350   382 1
   478   350   722 1
   479   350   756 1
   480   350   762 1
   481   350   765 1
   482   382   756 1
   483   322   330 1
   484   371   379 1
   485   371   733 1
   486   723   733 1
   487   322   328 1
   488   322   333 1
   489   371   380 1
   490   371   723 1
   491   371   761 1
   492   723   761 1
   493   371  1152 1
   494   337   343 1
   495   337   370 1
   496   337   383 1
   497   343   370 1
   498   343   383 1
   499   370   383 1
   500   373   383 1
   501   337   346 1
   502   337   345 1
   503   338   344 1
   504   338   347 1
   505   338   372 1
   506   338   381 1
   507   344   381 1
   508   372   378 1
   509   372   381 1
   510   339   349 1
   511   339   377 1
   512   358   364 1
   513   358   365 1
   514   358   369 1
   515   346   374 1
   516   348   722 1
   517   348   765 1
   518   722   728 1
   519   722   731 1
   520   722   756 1
   521   722   765 1
   522   728   765 1
   523   756   762 1
   524   756   765 1
   525   349  1138 1
   526   349  1105 1
   527   352   358 1
   528   353   356 1
   529   353   360 1
   530   351   353 1
   531   351   354 1
   532   351   355 1
   533   352   354 1
   534   352   357 1
   535   354   361 1
   536   355   357 1
   537   355   363 1
   538   357   367 1
   539   353   359 1
   540   384   754 1
   541   384   730 1
   542   384   758 1
   543   384   721 1
   544   418   422 1
   545   385   480 1
   546   385   466 1
   547   391   466 1
   548   391   472 1
   549   385   391 1
   550   385   462 1
   551   385   464 1
   552   391   456 1
   553   391   464 1
   554   418   456 1
   555   418   462 1
   556   385   482 1
   557   385   486 1
   558   385   581 1
   559   391   484 1
   560   386   392 1
   561   386   463 1
   562   386   481 1
   563   386   461 1
   564   386   465 1
   565   386   479 1
   566   386   485 1
   567   387   460 1
   568   387   467 1
   569   387   469 1
   570   387   477 1
   571   387   484 1
   572   410   484 1
   573   387   390 1
   574   388   470 1
   575   388   478 1
   576   388   389 1
   577   388   459 1
   578   388   483 1
   579   388   468 1
   580   389   470 1
   581   389   458 1
   582   389   474 1
   583   389   476 1
   584   389   468 1
   585   390   467 1
   586   390   469 1
   587   390   677 1
   588   578   677 1
   589   578   584 1
   590   578   655 1
   591   578   657 1
   592   390   473 1
   593   578   673 1
   594   390   457 1
   595   390   475 1
   596   390   578 1
   597   441   475 1
   598   441   671 1
   599   578   671 1
   600   578   653 1
   601   392   463 1
   602   392   483 1
   603   409   483 1
   604   392   471 1
   605   392   465 1
   606   400   485 1
   607   392   455 1
   608   393   444 1
   609   443   450 1
   610   394   443 1
   611   433   443 1
   612   403   432 1
   613   395   446 1
   614   396  1213 1
   615  1213  1216 1
   616   416   454 1
   617   427   454 1
   618   397   449 1
   619   398   448 1
   620   581   668 1
   621   581   662 1
   622   399   486 1
   623   486   581 1
   624   581   666 1
   625   581   650 1
   626   581   660 1
   627   482   632 1
   628   423   427 1
   629   401   430 1
   630   423   430 1
   631   424   428 1
   632   420   458 1
   633   402   429 1
   634   420   424 1
   635   420   459 1
   636   424   429 1
   637  1190  1200 1
   638   404   431 1
   639   431  1194 1
   640  1173  1194 1
   641  1190  1194 1
   642   405   426 1
   643   406   428 1
   644   434   440 1
   645   411   452 1
   646   419   460 1
   647   419   423 1
   648   419   457 1
   649   412   452 1
   650   413   453 1
   651   417   421 1
   652   417   461 1
   653   417   455 1
   654   414   453 1
   655   421   425 1
   656   425  1200 1
   657   425   453 1
   658   421   431 1
   659   422   432 1
   660   422   426 1
   661   435   441 1
   662   447   452 1
   663   435   447 1
   664   435  1405 1
   665   447  1214 1
   666  1405  1408 1
   667   436   442 1
   668   436   446 1
   669   436   640 1
   670   442   480 1
   671   442   668 1
   672   437   478 1
   673   497   501 1
   674   497   507 1
   675   437   471 1
   676   437   497 1
   677   438   500 1
   678   438   472 1
   679   438   477 1
   680   635   642 1
   681   439   473 1
   682   439   625 1
   683   439   673 1
   684   449   625 1
   685   625   635 1
   686   440   474 1
   687   632   666 1
   688   444   626 1
   689   626   632 1
   690   445   448 1
   691   509   511 1
   692   509   514 1
   693   509   515 1
   694   514   522 1
   695   514   525 1
   696   514   520 1
   697   515   526 1
   698   501   508 1
   699   494   501 1
   700   502   507 1
   701   487   502 1
   702   488   504 1
   703   489   503 1
   704   495   499 1
   705   499   503 1
   706   499   505 1
   707   547   549 1
   708   547   555 1
   709   490   507 1
   710   491   508 1
   711   493   498 1
   712   498   508 1
   713   498   502 1
   714   492   506 1
   715   496   505 1
   716   505  1272 1
   717  1256  1272 1
   718   512   518 1
   719   510   512 1
   720   510   707 1
   721   701   707 1
   722   707   718 1
   723   512   703 1
   724   701   703 1
   725   701   706 1
   726   510   516 1
   727   516   524 1
   728   513   519 1
   729   513   516 1
   730   513   521 1
   731   513   523 1
   732   516   527 1
   733   517   703 1
   734   542   574 1
   735   563   572 1
   736   532   563 1
   737   532   568 1
   738   532  1344 1
   739   563   571 1
   740   563  1344 1
   741   568  1344 1
   742   533   542 1
   743   534   542 1
   744   534   574 1
   745   535   562 1
   746   535   575 1
   747   546   553 1
   748   562   575 1
   749   565   575 1
   750   536   573 1
   751  1335  1497 1
   752   536  1535 1
   753  1335  1535 1
   754  1522  1535 1
   755  1525  1535 1
   756   543   546 1
   757   545   548 1
   758   543   545 1
   759   545   551 1
   760   545   552 1
   761   543   547 1
   762   544   546 1
   763   550   557 1
   764   544   549 1
   765   544   550 1
   766   549   559 1
   767   550   556 1
   768   550   561 1
   769   548   554 1
   770   548   558 1
   771   548   560 1
   772   564   720 1
   773   570   720 1
   774   564   573 1
   775   564   570 1
   776   564  1535 1
   777   721   754 1
   778   727   754 1
   779   721   730 1
   780   567   729 1
   781   567   767 1
   782   721   727 1
   783   721   729 1
   784   721   767 1
   785   727   767 1
   786   729   767 1
   787   757   767 1
   788   724   760 1
   789   724   755 1
   790   724  1536 1
   791   760  1536 1
   792   577   654 1
   793   577   672 1
   794   577   583 1
   795   577   656 1
   796   577   658 1
   797   577   678 1
   798   591   678 1
   799   577   674 1
   800   579   676 1
   801   579   652 1
   802   579   669 1
   803   579   582 1
   804   579   659 1
   805   579   661 1
   806   593   622 1
   807   616   620 1
   808   580   662 1
   809   580   670 1
   810   580   581 1
   811   580   651 1
   812   580   660 1
   813   612   616 1
   814   612   650 1
   815   612   651 1
   816   616   621 1
   817   580   675 1
   818   582   659 1
   819   582   661 1
   820   582   649 1
   821   582   665 1
   822   582   667 1
   823   610   614 1
   824   610   654 1
   825   583   664 1
   826   583   676 1
   827   583   648 1
   828   610   648 1
   829   583   656 1
   830   583   658 1
   831   584   647 1
   832   584   655 1
   833   584   657 1
   834   584   663 1
   835   584   675 1
   836   601   675 1
   837   585   636 1
   838   586   635 1
   839   596   623 1
   840   623  1386 1
   841   587   638 1
   842   628   634 1
   843   628   638 1
   844   634   672 1
   845   588  1405 1
   846   607   646 1
   847   608   646 1
   848   589   641 1
   849   631   665 1
   850   590   640 1
   851   598   620 1
   852   592   677 1
   853   594   621 1
   854   595   624 1
   855   597   618 1
   856   742   748 1
   857   742   749 1
   858   742   753 1
   859   602   676 1
   860   702   708 1
   861   708   716 1
   862   708   719 1
   863   702   704 1
   864   705   708 1
   865   627   633 1
   866   603   644 1
   867   627   639 1
   868   639   644 1
   869   705   711 1
   870   705   713 1
   871   705   715 1
   872   639  1406 1
   873   633   667 1
   874   604   644 1
   875   613   623 1
   876   617  1392 1
   877   605   645 1
   878   613   617 1
   879   617   645 1
   880   606   645 1
   881   609   647 1
   882   609   653 1
   883   609   613 1
   884   611   652 1
   885   615   619 1
   886   611   615 1
   887   615   622 1
   888   611   649 1
   889   614   618 1
   890   614   624 1
   891   629   670 1
   892   629   689 1
   893   629   663 1
   894   630   664 1
   895   630   692 1
   896   630   669 1
   897   637   640 1
   898   679   694 1
   899   682   699 1
   900   680   696 1
   901   681   695 1
   902   687   691 1
   903   691   695 1
   904   691   697 1
   905   683   700 1
   906   693   700 1
   907   686   693 1
   908   689   693 1
   909   689   699 1
   910   684   698 1
   911   698  1460 1
   912  1351  1432 1
   913  1398  1432 1
   914  1398  1460 1
   915  1351  1426 1
   916  1351  1416 1
   917  1351  1424 1
   918  1398  1437 1
   919  1351  1444 1
   920   685   690 1
   921   690   694 1
   922   690   700 1
   923   694   699 1
   924   688   697 1
   925   697  1464 1
   926   704   710 1
   927   725   734 1
   928   734   766 1
   929   706   714 1
   930   706   712 1
   931   706   717 1
   932   726   734 1
   933   726   766 1
   934   730   758 1
   935   736   742 1
   936   738   745 1
   937   735   738 1
   938   735   739 1
   939   736   738 1
   940   736   741 1
   941   739   741 1
   942   741   751 1
   943   735   737 1
   944   739   747 1
   945   737   740 1
   946   737   744 1
   947   737   743 1
   948   740   752 1
   949   740   746 1
   950   740   750 1
   951   754   767 1
   952   755   763 1
   953   755   764 1
   954   755  1536 1
   955   965  1052 1
   956   769   775 1
   957   769   850 1
   958   965  1046 1
   959   769   846 1
   960   769   848 1
   961   769   864 1
   962   769   866 1
   963   769   870 1
   964   769   965 1
   965   870   965 1
   966   965  1050 1
   967   965  1034 1
   968   965  1044 1
   969   866  1016 1
   970   770   847 1
   971   770   776 1
   972   770   865 1
   973   770   845 1
   974   770   849 1
   975   770   863 1
   976   770   869 1
   977   771   844 1
   978   771   851 1
   979   771   853 1
   980   771   861 1
   981   771   868 1
   982   794   868 1
   983   771   774 1
   984   772   854 1
   985   772   773 1
   986   772   843 1
   987   772   867 1
   988   793   867 1
   989   772   862 1
   990   772   852 1
   991   784   869 1
   992   773   854 1
   993   773   842 1
   994   773   858 1
   995   773   860 1
   996   824   858 1
   997   773   852 1
   998   774   851 1
   999   774   853 1
  1000   774  1061 1
  1001   774   857 1
  1002   774   841 1
  1003   774   859 1
  1004   825   859 1
  1005   825  1055 1
  1006   774   962 1
  1007   822   884 1
  1008   775   850 1
  1009   775   856 1
  1010   822   856 1
  1011   775   840 1
  1012   775   848 1
  1013   775   868 1
  1014   822   861 1
  1015   776   847 1
  1016   821   881 1
  1017   776   867 1
  1018   776   855 1
  1019   821   855 1
  1020   821   862 1
  1021   776   849 1
  1022   776   839 1
  1023   777   828 1
  1024   827   834 1
  1025   778   827 1
  1026   817   827 1
  1027   787   816 1
  1028   779   830 1
  1029   807   814 1
  1030   800   838 1
  1031   807   811 1
  1032   811   838 1
  1033   781   833 1
  1034   782   832 1
  1035   783   870 1
  1036   785   814 1
  1037   808   812 1
  1038   804   842 1
  1039   786   813 1
  1040   804   808 1
  1041   804   843 1
  1042   808   813 1
  1043   813  1195 1
  1044   788   815 1
  1045   789   810 1
  1046   790   812 1
  1047   812  1198 1
  1048   818   824 1
  1049   791  1219 1
  1050   818  1218 1
  1051  1176  1219 1
  1052  1211  1218 1
  1053  1218  1219 1
  1054   792   835 1
  1055   834   835 1
  1056   795   836 1
  1057   803   844 1
  1058   803   807 1
  1059   803   841 1
  1060   796   836 1
  1061   797   837 1
  1062   801   805 1
  1063   801   845 1
  1064   801   839 1
  1065   798   837 1
  1066   799   838 1
  1067   806   816 1
  1068   806   810 1
  1069   802   806 1
  1070   802   840 1
  1071   802   846 1
  1072   805   809 1
  1073   809   837 1
  1074   805   815 1
  1075   819   825 1
  1076   831   836 1
  1077   819   831 1
  1078   820   826 1
  1079   820   830 1
  1080   820  1024 1
  1081   826  1052 1
  1082   826   864 1
  1083  1019  1026 1
  1084   823   857 1
  1085   823  1009 1
  1086   823  1057 1
  1087   833  1009 1
  1088  1009  1019 1
  1089  1016  1050 1
  1090   828  1010 1
  1091  1010  1016 1
  1092  1010  1410 1
  1093  1410  1411 1
  1094   828  1217 1
  1095   927   930 1
  1096   929   932 1
  1097   927   929 1
  1098   929   935 1
  1099   929   936 1
  1100   927   931 1
  1101   893   895 1
  1102   893   898 1
  1103   893   899 1
  1104   898   906 1
  1105   898   909 1
  1106   898   904 1
  1107   899   910 1
  1108   886   891 1
  1109   871   886 1
  1110   873   887 1
  1111   879   883 1
  1112   883   887 1
  1113   887  1274 1
  1114   883   889 1
  1115   931   933 1
  1116   881   885 1
  1117   931   939 1
  1118   874   891 1
  1119   881   891 1
  1120   875   892 1
  1121   877   882 1
  1122   882   892 1
  1123   882   886 1
  1124   876   890 1
  1125   885   892 1
  1126   878   885 1
  1127   880   889 1
  1128   896   902 1
  1129   894   896 1
  1130   894  1091 1
  1131  1085  1091 1
  1132  1091  1102 1
  1133   896  1087 1
  1134  1085  1087 1
  1135  1085  1090 1
  1136   894   900 1
  1137   900   908 1
  1138   897   900 1
  1139   897   903 1
  1140   897   905 1
  1141   897   907 1
  1142   900   911 1
  1143   901  1087 1
  1144   926  1488 1
  1145  1147  1491 1
  1146   926  1338 1
  1147   926   958 1
  1148   926  1332 1
  1149  1147  1501 1
  1150  1488  1501 1
  1151   926  1298 1
  1152   926  1341 1
  1153   915   953 1
  1154   912   925 1
  1155   915   925 1
  1156   913   921 1
  1157   913   922 1
  1158   913   946 1
  1159   922   950 1
  1160   913   919 1
  1161   913   959 1
  1162   921   959 1
  1163   946   959 1
  1164   948  1104 1
  1165   954  1104 1
  1166   914   957 1
  1167   948   957 1
  1168   914   923 1
  1169   914   948 1
  1170   948   954 1
  1171   914   920 1
  1172   947   956 1
  1173   916   947 1
  1174   916   952 1
  1175   916  1309 1
  1176   947   955 1
  1177   947  1299 1
  1178   947  1309 1
  1179   955  1299 1
  1180   955  1309 1
  1181  1296  1309 1
  1182  1299  1309 1
  1183   947  1337 1
  1184  1299  1337 1
  1185   917   926 1
  1186   918   926 1
  1187   958  1488 1
  1188  1332  1488 1
  1189  1332  1338 1
  1190   918   958 1
  1191   958  1332 1
  1192  1108  1144 1
  1193  1108  1501 1
  1194  1108  1139 1
  1195  1332  1341 1
  1196   919   946 1
  1197   919   959 1
  1198   930   937 1
  1199   949   959 1
  1200   920   957 1
  1201  1298  1307 1
  1202  1298  1332 1
  1203   924  1298 1
  1204   924  1341 1
  1205  1298  1341 1
  1206  1298  1304 1
  1207   928   930 1
  1208   934   941 1
  1209   928   933 1
  1210   928   934 1
  1211   933   943 1
  1212   934   940 1
  1213   934   945 1
  1214   932   938 1
  1215   932   942 1
  1216   932   944 1
  1217  1105  1138 1
  1218  1105  1114 1
  1219   951  1113 1
  1220   951  1151 1
  1221  1105  1113 1
  1222  1105  1151 1
  1223  1113  1151 1
  1224  1141  1151 1
  1225  1105  1111 1
  1226   961  1056 1
  1227   967  1048 1
  1228   967  1060 1
  1229   967  1032 1
  1230   961   967 1
  1231   961  1038 1
  1232   961  1040 1
  1233   961  1042 1
  1234   961  1062 1
  1235   967  1040 1
  1236   967  1042 1
  1237   975  1062 1
  1238   961  1058 1
  1239   962  1061 1
  1240   962   968 1
  1241   962  1039 1
  1242   962  1041 1
  1243   993  1031 1
  1244   962  1057 1
  1245   993   997 1
  1246   962  1055 1
  1247   962  1037 1
  1248   993  1037 1
  1249   963  1060 1
  1250   963  1036 1
  1251   963  1053 1
  1252   963   966 1
  1253   963  1043 1
  1254   963  1045 1
  1255   966  1043 1
  1256   966  1045 1
  1257   966  1049 1
  1258   966  1033 1
  1259   966  1051 1
  1260   964  1046 1
  1261   964  1054 1
  1262   964   965 1
  1263   964  1035 1
  1264   964  1044 1
  1265   964  1059 1
  1266   968  1031 1
  1267   968  1039 1
  1268   968  1041 1
  1269   968  1047 1
  1270   968  1059 1
  1271   985  1059 1
  1272   969  1020 1
  1273  1020  1409 1
  1274   970  1019 1
  1275   980  1007 1
  1276   971  1022 1
  1277  1012  1018 1
  1278  1012  1022 1
  1279  1018  1056 1
  1280   973  1025 1
  1281   991  1030 1
  1282   992  1030 1
  1283   974  1024 1
  1284   982  1004 1
  1285  1004  1390 1
  1286   976  1061 1
  1287   995  1036 1
  1288   999  1003 1
  1289   977  1006 1
  1290   995   999 1
  1291   999  1006 1
  1292   995  1033 1
  1293  1000  1004 1
  1294  1005  1387 1
  1295   978  1005 1
  1296  1000  1005 1
  1297   981  1002 1
  1298   994   998 1
  1299   994  1032 1
  1300   994  1038 1
  1301   983  1411 1
  1302  1368  1411 1
  1303   984  1027 1
  1304   986  1060 1
  1305  1086  1088 1
  1306  1086  1092 1
  1307  1092  1100 1
  1308  1092  1103 1
  1309  1088  1094 1
  1310   987  1028 1
  1311   988  1028 1
  1312  1011  1017 1
  1313  1011  1023 1
  1314   989  1029 1
  1315   990  1029 1
  1316   996  1034 1
  1317   996  1035 1
  1318   996  1000 1
  1319   997  1007 1
  1320   997  1001 1
  1321  1001  1029 1
  1322   998  1002 1
  1323   998  1008 1
  1324  1003  1030 1
  1325  1077  1084 1
  1326  1013  1054 1
  1327  1013  1073 1
  1328  1070  1077 1
  1329  1073  1077 1
  1330  1073  1083 1
  1331  1013  1047 1
  1332  1015  1049 1
  1333  1017  1051 1
  1334  1089  1092 1
  1335  1023  1028 1
  1336  1089  1095 1
  1337  1089  1097 1
  1338  1089  1099 1
  1339  1026  1027 1
  1340  1063  1078 1
  1341  1066  1083 1
  1342  1064  1080 1
  1343  1065  1079 1
  1344  1079  1466 1
  1345  1067  1084 1
  1346  1069  1074 1
  1347  1074  1078 1
  1348  1074  1084 1
  1349  1078  1083 1
  1350  1068  1082 1
  1351  1071  1075 1
  1352  1075  1079 1
  1353  1075  1081 1
  1354  1072  1081 1
  1355  1090  1098 1
  1356  1090  1096 1
  1357  1090  1101 1
  1358  1491  1501 1
  1359  1491  1529 1
  1360  1109  1118 1
  1361  1118  1150 1
  1362  1118  1490 1
  1363  1118  1524 1
  1364  1118  1530 1
  1365  1150  1524 1
  1366  1118  1533 1
  1367  1104  1117 1
  1368  1106  1112 1
  1369  1106  1115 1
  1370  1106  1140 1
  1371  1106  1149 1
  1372  1112  1149 1
  1373  1140  1146 1
  1374  1140  1149 1
  1375  1107  1117 1
  1376  1107  1145 1
  1377  1110  1118 1
  1378  1110  1150 1
  1379  1111  1138 1
  1380  1120  1126 1
  1381  1111  1151 1
  1382  1119  1122 1
  1383  1119  1123 1
  1384  1120  1122 1
  1385  1120  1125 1
  1386  1122  1129 1
  1387  1123  1125 1
  1388  1125  1135 1
  1389  1119  1121 1
  1390  1123  1131 1
  1391  1114  1142 1
  1392  1375  1414 1
  1393  1116  1490 1
  1394  1490  1499 1
  1395  1490  1524 1
  1396  1524  1530 1
  1397  1116  1533 1
  1398  1490  1496 1
  1399  1490  1533 1
  1400  1524  1533 1
  1401  1121  1124 1
  1402  1121  1128 1
  1403  1121  1127 1
  1404  1124  1136 1
  1405  1124  1130 1
  1406  1124  1134 1
  1407  1126  1132 1
  1408  1126  1133 1
  1409  1126  1137 1
  1410  1139  1147 1
  1411  1139  1491 1
  1412  1139  1148 1
  1413  1139  1501 1
  1414  1139  1529 1
  1415  1152  1489 1
  1416  1152  1498 1
  1417  1152  1526 1
  1418  1498  1526 1
  1419  1152  1522 1
  1420  1153  1234 1
  1421  1349  1430 1
  1422  1153  1230 1
  1423  1153  1248 1
  1424  1153  1250 1
  1425  1153  1254 1
  1426  1153  1349 1
  1427  1210  1248 1
  1428  1210  1436 1
  1429  1250  1400 1
  1430  1254  1349 1
  1431  1349  1434 1
  1432  1349  1436 1
  1433  1400  1434 1
  1434  1349  1418 1
  1435  1153  1159 1
  1436  1153  1232 1
  1437  1349  1428 1
  1438  1154  1229 1
  1439  1154  1231 1
  1440  1154  1249 1
  1441  1154  1233 1
  1442  1154  1253 1
  1443  1168  1253 1
  1444  1154  1160 1
  1445  1154  1247 1
  1446  1159  1234 1
  1447  1159  1224 1
  1448  1206  1268 1
  1449  1155  1235 1
  1450  1155  1245 1
  1451  1155  1252 1
  1452  1159  1240 1
  1453  1159  1252 1
  1454  1178  1252 1
  1455  1206  1240 1
  1456  1206  1245 1
  1457  1159  1232 1
  1458  1155  1228 1
  1459  1155  1237 1
  1460  1155  1158 1
  1461  1156  1238 1
  1462  1156  1157 1
  1463  1156  1227 1
  1464  1156  1251 1
  1465  1177  1251 1
  1466  1156  1246 1
  1467  1156  1236 1
  1468  1157  1238 1
  1469  1157  1226 1
  1470  1157  1244 1
  1471  1157  1236 1
  1472  1157  1242 1
  1473  1158  1235 1
  1474  1158  1241 1
  1475  1158  1225 1
  1476  1158  1237 1
  1477  1158  1243 1
  1478  1158  1445 1
  1479  1209  1243 1
  1480  1209  1439 1
  1481  1158  1346 1
  1482  1160  1251 1
  1483  1160  1239 1
  1484  1160  1231 1
  1485  1182  1221 1
  1486  1160  1233 1
  1487  1160  1223 1
  1488  1264  1273 1
  1489  1161  1212 1
  1490  1162  1211 1
  1491  1201  1211 1
  1492  1171  1200 1
  1493  1163  1214 1
  1494  1191  1198 1
  1495  1165  1217 1
  1496  1191  1195 1
  1497  1166  1216 1
  1498  1167  1254 1
  1499  1315  1317 1
  1500  1169  1198 1
  1501  1315  1323 1
  1502  1188  1226 1
  1503  1170  1197 1
  1504  1174  1196 1
  1505  1188  1192 1
  1506  1188  1227 1
  1507  1192  1196 1
  1508  1192  1197 1
  1509  1189  1193 1
  1510  1172  1199 1
  1511  1189  1199 1
  1512  1202  1208 1
  1513  1179  1220 1
  1514  1180  1220 1
  1515  1181  1221 1
  1516  1183  1222 1
  1517  1184  1222 1
  1518  1195  1222 1
  1519  1185  1229 1
  1520  1193  1221 1
  1521  1185  1223 1
  1522  1185  1189 1
  1523  1186  1190 1
  1524  1186  1224 1
  1525  1186  1230 1
  1526  1187  1191 1
  1527  1187  1225 1
  1528  1187  1228 1
  1529  1203  1209 1
  1530  1215  1220 1
  1531  1203  1215 1
  1532  1204  1214 1
  1533  1204  1408 1
  1534  1204  1210 1
  1535  1205  1265 1
  1536  1205  1239 1
  1537  1205  1246 1
  1538  1403  1410 1
  1539  1207  1241 1
  1540  1207  1393 1
  1541  1207  1441 1
  1542  1217  1393 1
  1543  1393  1403 1
  1544  1208  1242 1
  1545  1282  1290 1
  1546  1282  1288 1
  1547  1282  1293 1
  1548  1394  1400 1
  1549  1212  1394 1
  1550  1259  1276 1
  1551  1261  1266 1
  1552  1266  1276 1
  1553  1270  1275 1
  1554  1255  1270 1
  1555  1266  1270 1
  1556  1257  1271 1
  1557  1265  1269 1
  1558  1258  1275 1
  1559  1265  1275 1
  1560  1260  1274 1
  1561  1262  1269 1
  1562  1263  1267 1
  1563  1267  1271 1
  1564  1267  1273 1
  1565  1318  1325 1
  1566  1312  1317 1
  1567  1312  1318 1
  1568  1317  1327 1
  1569  1318  1324 1
  1570  1318  1329 1
  1571  1269  1276 1
  1572  1312  1314 1
  1573  1277  1279 1
  1574  1277  1282 1
  1575  1277  1283 1
  1576  1283  1294 1
  1577  1300  1331 1
  1578  1300  1336 1
  1579  1278  1280 1
  1580  1281  1287 1
  1581  1278  1284 1
  1582  1278  1475 1
  1583  1281  1284 1
  1584  1281  1289 1
  1585  1281  1291 1
  1586  1284  1292 1
  1587  1284  1295 1
  1588  1475  1486 1
  1589  1280  1286 1
  1590  1280  1471 1
  1591  1469  1471 1
  1592  1469  1474 1
  1593  1469  1475 1
  1594  1285  1471 1
  1595  1301  1310 1
  1596  1302  1310 1
  1597  1302  1342 1
  1598  1310  1342 1
  1599  1492  1528 1
  1600  1492  1523 1
  1601  1303  1330 1
  1602  1303  1343 1
  1603  1333  1343 1
  1604  1304  1341 1
  1605  1314  1321 1
  1606  1313  1316 1
  1607  1311  1315 1
  1608  1311  1313 1
  1609  1311  1314 1
  1610  1313  1319 1
  1611  1313  1320 1
  1612  1316  1322 1
  1613  1316  1326 1
  1614  1316  1328 1
  1615  1331  1340 1
  1616  1331  1339 1
  1617  1338  1488 1
  1618  1345  1351 1
  1619  1345  1426 1
  1620  1345  1422 1
  1621  1345  1424 1
  1622  1345  1440 1
  1623  1345  1442 1
  1624  1345  1446 1
  1625  1346  1423 1
  1626  1346  1352 1
  1627  1346  1441 1
  1628  1377  1381 1
  1629  1346  1439 1
  1630  1346  1445 1
  1631  1346  1421 1
  1632  1346  1425 1
  1633  1377  1415 1
  1634  1377  1421 1
  1635  1347  1420 1
  1636  1347  1437 1
  1637  1347  1427 1
  1638  1347  1429 1
  1639  1347  1444 1
  1640  1370  1444 1
  1641  1347  1350 1
  1642  1348  1430 1
  1643  1348  1349 1
  1644  1348  1419 1
  1645  1352  1423 1
  1646  1397  1457 1
  1647  1348  1438 1
  1648  1348  1443 1
  1649  1352  1431 1
  1650  1352  1443 1
  1651  1369  1443 1
  1652  1397  1431 1
  1653  1397  1438 1
  1654  1348  1428 1
  1655  1352  1415 1
  1656  1352  1425 1
  1657  1350  1427 1
  1658  1350  1429 1
  1659  1350  1433 1
  1660  1350  1417 1
  1661  1350  1435 1
  1662  1401  1435 1
  1663  1372  1412 1
  1664  1353  1404 1
  1665  1354  1403 1
  1666  1355  1406 1
  1667  1396  1402 1
  1668  1396  1406 1
  1669  1402  1440 1
  1670  1376  1414 1
  1671  1357  1409 1
  1672  1358  1408 1
  1673  1366  1388 1
  1674  1359  1446 1
  1675  1360  1445 1
  1676  1379  1420 1
  1677  1379  1383 1
  1678  1361  1390 1
  1679  1379  1417 1
  1680  1362  1389 1
  1681  1363  1392 1
  1682  1364  1391 1
  1683  1382  1392 1
  1684  1365  1386 1
  1685  1378  1382 1
  1686  1378  1416 1
  1687  1382  1386 1
  1688  1378  1422 1
  1689  1395  1401 1
  1690  1371  1412 1
  1691  1395  1407 1
  1692  1407  1412 1
  1693  1373  1413 1
  1694  1374  1413 1
  1695  1384  1388 1
  1696  1380  1384 1
  1697  1380  1418 1
  1698  1380  1419 1
  1699  1384  1389 1
  1700  1381  1385 1
  1701  1385  1413 1
  1702  1381  1391 1
  1703  1383  1387 1
  1704  1387  1414 1
  1705  1383  1390 1
  1706  1399  1433 1
  1707  1503  1506 1
  1708  1507  1509 1
  1709  1505  1508 1
  1710  1507  1515 1
  1711  1505  1512 1
  1712  1503  1505 1
  1713  1503  1507 1
  1714  1505  1511 1
  1715  1455  1459 1
  1716  1474  1482 1
  1717  1474  1485 1
  1718  1449  1463 1
  1719  1459  1463 1
  1720  1474  1480 1
  1721  1459  1465 1
  1722  1457  1461 1
  1723  1447  1462 1
  1724  1450  1467 1
  1725  1457  1467 1
  1726  1462  1467 1
  1727  1448  1464 1
  1728  1451  1468 1
  1729  1453  1458 1
  1730  1458  1468 1
  1731  1458  1462 1
  1732  1452  1466 1
  1733  1461  1468 1
  1734  1454  1461 1
  1735  1456  1465 1
  1736  1470  1472 1
  1737  1472  1478 1
  1738  1470  1476 1
  1739  1473  1476 1
  1740  1473  1479 1
  1741  1473  1481 1
  1742  1473  1483 1
  1743  1476  1484 1
  1744  1476  1487 1
  1745  1493  1502 1
  1746  1502  1534 1
  1747  1494  1502 1
  1748  1494  1534 1
  1749  1495  1522 1
  1750  1495  1535 1
  1751  1504  1506 1
  1752  1504  1509 1
  1753  1504  1510 1
  1754  1506  1513 1
  1755  1510  1516 1
  1756  1510  1517 1
  1757  1510  1521 1
  1758  1509  1519 1
  1759  1496  1533 1
  1760  1508  1514 1
  1761  1508  1520 1
  1762  1508  1518 1
  1763  1523  1532 1
  1764  1523  1531 1
