@<TRIPOS>MOLECULE
frame0019
 1536 1582 0 0 0
SMALL
NO_CHARGES

@<TRIPOS>ATOM
      1 Ti1         -2.8554     2.2298    11.2464 Ti        1 MOL       0.0000
      2 Ti2          7.9750     5.1110     1.8816 Ti        1 MOL       0.0000
      3 Ti3          1.2412    -1.7064     9.4264 Ti        1 MOL       0.0000
      4 Ti4          2.7524     7.4557     3.6534 Ti        1 MOL       0.0000
      5 Ti5          1.7539     9.1340     1.7490 Ti        1 MOL       0.0000
      6 Ti6          3.1294    -1.9608    11.3798 Ti        1 MOL       0.0000
      7 Ti7         -1.9062     0.4939     9.3549 Ti        1 MOL       0.0000
      8 Ti8          5.9872     5.4135     3.7290 Ti        1 MOL       0.0000
      9 H1          -2.3536     6.1269    11.0269 H         1 MOL       0.0000
     10 H2           8.7838     1.2049     2.2023 H         1 MOL       0.0000
     11 H3          -6.8153     1.4731    10.8640 H         1 MOL       0.0000
     12 H4          11.3572     7.1153     2.0822 H         1 MOL       0.0000
     13 H5           4.1051    -5.9953    10.9939 H         1 MOL       0.0000
     14 H6          -2.3047     8.5441     2.0711 H         1 MOL       0.0000
     15 H7          -2.3867     0.4312    12.9709 H         1 MOL       0.0000
     16 H8           6.0995     4.8683     0.1817 H         1 MOL       0.0000
     17 H9           3.6394    -2.6279     5.8687 H         1 MOL       0.0000
     18 H10          1.0290     9.2927     7.2723 H         1 MOL       0.0000
     19 H11         -5.9789     3.8825     8.9990 H         1 MOL       0.0000
     20 H12         10.7298     3.0266     4.1876 H         1 MOL       0.0000
     21 H13         -3.6778     2.4351     5.6652 H         1 MOL       0.0000
     22 H14         -1.3462    10.9619     4.1022 H         1 MOL       0.0000
     23 H15          2.1461    12.2368     2.6045 H         1 MOL       0.0000
     24 H16          8.6260    -0.8139     3.4048 H         1 MOL       0.0000
     25 H17          4.8451     7.1358     2.3148 H         1 MOL       0.0000
     26 H18          0.1606     0.1420    10.7200 H         1 MOL       0.0000
     27 H19          7.3642    -0.0259     9.7695 H         1 MOL       0.0000
     28 H20          5.8831    -0.4950    10.5168 H         1 MOL       0.0000
     29 H21          7.9383     4.4077     8.6706 H         1 MOL       0.0000
     30 H22          7.3686     4.7663     7.0520 H         1 MOL       0.0000
     31 H23          6.8754    -4.9808     9.5794 H         1 MOL       0.0000
     32 H24          5.5962    -3.8802    10.0368 H         1 MOL       0.0000
     33 C1           8.5531     4.3697     4.7451 C         1 MOL       0.0000
     34 C2          -3.8160     2.4911     8.3994 C         1 MOL       0.0000
     35 C3           3.8218    -2.7171     8.5017 C         1 MOL       0.0000
     36 C4           0.8163     9.4262     4.6128 C         1 MOL       0.0000
     37 C5           9.4491     3.7654     5.7403 C         1 MOL       0.0000
     38 C6          -4.7479     3.1162     7.4223 C         1 MOL       0.0000
     39 C7           4.7619    -3.3315     7.5545 C         1 MOL       0.0000
     40 C8          -0.0735    10.0730     5.6125 C         1 MOL       0.0000
     41 C9           9.2003     3.8403     7.1467 C         1 MOL       0.0000
     42 C10         -4.5315     2.9962     6.0343 C         1 MOL       0.0000
     43 C11          5.8914    -4.0918     8.0076 C         1 MOL       0.0000
     44 C12         -1.1682    10.8460     5.1676 C         1 MOL       0.0000
     45 C13          0.1810     9.9023     6.9674 C         1 MOL       0.0000
     46 C14          4.5142    -3.1993     6.1706 C         1 MOL       0.0000
     47 C15         10.5828     3.0664     5.2646 C         1 MOL       0.0000
     48 C16         -5.8480     3.8086     7.9210 C         1 MOL       0.0000
     49 C17          8.7648     1.2840     0.0582 C         1 MOL       0.0000
     50 C18          2.2951    13.0756     0.0832 C         1 MOL       0.0000
     51 C19          6.6143    -0.0189    13.0272 C         1 MOL       0.0000
     52 C20         -6.7440     1.5235    13.0078 C         1 MOL       0.0000
     53 C21          3.4992     5.1125     5.6180 C         1 MOL       0.0000
     54 C22         -1.2569    -1.9819     7.5361 C         1 MOL       0.0000
     55 C23          3.9940    -4.3272    13.1300 C         1 MOL       0.0000
     56 C24          2.2024    11.6421     0.0457 C         1 MOL       0.0000
     57 C25          5.3165    -0.6357    13.0740 C         1 MOL       0.0000
     58 C26         -5.3417     1.9379    13.0323 C         1 MOL       0.0000
     59 C27          8.8042     0.6149     1.2879 C         1 MOL       0.0000
     60 C28         -2.3426     6.7153    11.9408 C         1 MOL       0.0000
     61 C29         -4.0954     7.8789     1.0761 C         1 MOL       0.0000
     62 C30         -7.3768     1.2938    11.7793 C         1 MOL       0.0000
     63 C31          7.3089     0.2494    11.7938 C         1 MOL       0.0000
     64 C32         -2.8062     8.3591     1.1253 C         1 MOL       0.0000
     65 C33          4.1467    -6.5225    11.9429 C         1 MOL       0.0000
     66 C34          8.8259    -0.7862     1.3695 C         1 MOL       0.0000
     67 N1           8.8810    -1.3851     2.6076 N         1 MOL       0.0000
     68 N2           6.7299     0.0665    10.5548 N         1 MOL       0.0000
     69 N3           8.1195     4.4866     7.6780 N         1 MOL       0.0000
     70 N4           6.2224    -4.2500     9.3250 N         1 MOL       0.0000
     71 O1           7.3768     4.7748     5.1109 O         1 MOL       0.0000
     72 O2          -3.0470     1.5403     8.0011 O         1 MOL       0.0000
     73 O3           4.2032    -2.5927     9.7228 O         1 MOL       0.0000
     74 O4           0.7505     9.8559     3.4131 O         1 MOL       0.0000
     75 O5           1.5868     8.4690     4.9992 O         1 MOL       0.0000
     76 O6           2.6513    -2.3487     8.0962 O         1 MOL       0.0000
     77 O7           8.9650     4.4505     3.5334 O         1 MOL       0.0000
     78 O8          -3.8580     2.9274     9.5991 O         1 MOL       0.0000
     79 O9           6.2924     4.1956     2.5344 O         1 MOL       0.0000
     80 O10         -1.3538     2.0542    10.0994 O         1 MOL       0.0000
     81 O11          7.2312     6.4829     2.9843 O         1 MOL       0.0000
     82 O12         -3.1060     0.3295    10.5921 O         1 MOL       0.0000
     83 O13          1.5006    -2.8784    10.6868 O         1 MOL       0.0000
     84 O14          3.2690     9.0170     2.9149 O         1 MOL       0.0000
     85 O15          2.4545    -0.6169    10.2227 O         1 MOL       0.0000
     86 O16          1.5628     7.2599     2.3975 O         1 MOL       0.0000
     87 O17          4.7203     4.9326     5.2637 O         1 MOL       0.0000
     88 O18         -1.9146    -0.9469     7.9143 O         1 MOL       0.0000
     89 O19          3.8718    -3.7326    11.9889 O         1 MOL       0.0000
     90 O20          2.1193    10.9406     1.1409 O         1 MOL       0.0000
     91 O21          4.6739    -0.9445    11.9838 O         1 MOL       0.0000
     92 O22         -0.1167     9.1049     1.0808 O         1 MOL       0.0000
     93 O23         -0.0951    -2.2764     7.9939 O         1 MOL       0.0000
     94 O24          2.7573     6.0334     5.1246 O         1 MOL       0.0000
     95 O25          9.4121     6.1301     1.1270 O         1 MOL       0.0000
     96 O26         -4.7422     2.1697    11.9148 O         1 MOL       0.0000
     97 O27          8.6166     3.3758     1.1564 O         1 MOL       0.0000
     98 O28         -2.4740     3.9521    11.9961 O         1 MOL       0.0000
     99 O29          4.4842     6.5871     3.0354 O         1 MOL       0.0000
    100 O30         -0.2177    -0.4167    10.0165 O         1 MOL       0.0000
    101 O31          6.9383     5.3620     0.1026 O         1 MOL       0.0000
    102 O32         -2.2643     1.3980    13.0309 O         1 MOL       0.0000
    103 H25          3.7378     1.4976     8.5611 H         1 MOL       0.0000
    104 H26         -6.6147    10.5722     6.1774 H         1 MOL       0.0000
    105 H27          4.4385    10.1280     5.7008 H         1 MOL       0.0000
    106 H28          4.7273     3.0298     6.8406 H         1 MOL       0.0000
    107 H29          0.1023     3.7971     8.5183 H         1 MOL       0.0000
    108 H30         12.1094    -2.7178     7.0946 H         1 MOL       0.0000
    109 H31          1.3992     1.8435     9.3107 H         1 MOL       0.0000
    110 H32          1.1361     5.3936     6.8756 H         1 MOL       0.0000
    111 H33          5.7834     8.3814     4.5541 H         1 MOL       0.0000
    112 H34          8.2433     8.2901     4.8480 H         1 MOL       0.0000
    113 C35          2.9662     4.2713     6.7171 C         1 MOL       0.0000
    114 C36          1.8561     2.5481     8.6167 C         1 MOL       0.0000
    115 C37          6.2809     9.1237     5.1777 C         1 MOL       0.0000
    116 C38         -1.9248    -2.9834     6.6732 C         1 MOL       0.0000
    117 C39          1.6847     4.5254     7.2356 C         1 MOL       0.0000
    118 C40          3.1713     2.3459     8.1803 C         1 MOL       0.0000
    119 C41          5.5219    10.1208     5.8034 C         1 MOL       0.0000
    120 C42         -7.6913    10.5981     6.0277 C         1 MOL       0.0000
    121 C43          7.6702     9.0781     5.3326 C         1 MOL       0.0000
    122 C44         12.6772    -3.5077     6.6102 C         1 MOL       0.0000
    123 C45          3.7232     3.1979     7.2229 C         1 MOL       0.0000
    124 C46          1.1210     3.6490     8.1637 C         1 MOL       0.0000
    125 N5           5.2210    10.4890     1.2322 N         1 MOL       0.0000
    126 N6           1.9981     2.4759    12.9308 N         1 MOL       0.0000
    127 C47          0.4444     4.0486    13.0949 C         1 MOL       0.0000
    128 C48          1.2605     3.4071    12.2265 C         1 MOL       0.0000
    129 C49          4.2585     2.5893    11.9108 C         1 MOL       0.0000
    130 C50          4.8050    11.1618     2.4922 C         1 MOL       0.0000
    131 C51          6.2151     9.5744     1.1304 C         1 MOL       0.0000
    132 C52          3.1168     1.6883    12.3800 C         1 MOL       0.0000
    133 H35         -0.1568     4.9316    12.9678 H         1 MOL       0.0000
    134 H36          1.4773     3.6304    11.1825 H         1 MOL       0.0000
    135 H37          3.9279     3.2840    11.1255 H         1 MOL       0.0000
    136 H38          4.7302    12.2337     2.3335 H         1 MOL       0.0000
    137 H39          4.6931     3.1715    12.7314 H         1 MOL       0.0000
    138 H40          3.8522    10.8179     2.8217 H         1 MOL       0.0000
    139 H41          5.0388     1.9519    11.4729 H         1 MOL       0.0000
    140 H42          2.7053     1.1074    11.5471 H         1 MOL       0.0000
    141 H43          5.5597    10.9826     3.2717 H         1 MOL       0.0000
    142 H44          6.6032     8.9324     1.9120 H         1 MOL       0.0000
    143 H45          8.0473     8.0592     0.0762 H         1 MOL       0.0000
    144 N7           2.0804     7.0458    12.9472 N         1 MOL       0.0000
    145 C53          0.5038     0.6456     1.3809 C         1 MOL       0.0000
    146 C54          9.3937    -5.3488    10.1681 C         1 MOL       0.0000
    147 O33         13.9455    -0.3491     2.6532 O         1 MOL       0.0000
    148 O34          9.4321    11.9958     1.0472 O         1 MOL       0.0000
    149 O35          1.2842     5.8652    10.5856 O         1 MOL       0.0000
    150 O36          3.7196     6.0796     9.4282 O         1 MOL       0.0000
    151 F1           0.3584     1.7410     2.3013 F         1 MOL       0.0000
    152 F2           9.3734    -3.1425    11.7714 F         1 MOL       0.0000
    153 F3           1.7999     1.0375     0.7040 F         1 MOL       0.0000
    154 F4          -0.4136     0.0337     4.1210 F         1 MOL       0.0000
    155 F5           8.8279    -4.2146     9.8569 F         1 MOL       0.0000
    156 F6           2.6262     8.6661     8.3775 F         1 MOL       0.0000
    157 S1           7.6381    13.5299     0.9027 S         1 MOL       0.0000
    158 S2           2.5756     6.5627    10.7235 S         1 MOL       0.0000
    159 N8           3.3311     1.5358     3.4916 N         1 MOL       0.0000
    160 N9           1.6347     2.3148     4.5734 N         1 MOL       0.0000
    161 C55          4.3790     1.3399     2.4710 C         1 MOL       0.0000
    162 C56          2.4195     2.5117     3.4973 C         1 MOL       0.0000
    163 C57          3.1034     0.6593     4.5824 C         1 MOL       0.0000
    164 C58          4.3489    -0.0410     1.8278 C         1 MOL       0.0000
    165 C59          2.0353     1.1608     5.2690 C         1 MOL       0.0000
    166 C60          0.3587     3.0086     4.7643 C         1 MOL       0.0000
    167 H46          5.3330     1.5561     2.9700 H         1 MOL       0.0000
    168 H47          4.2220     2.1436     1.7386 H         1 MOL       0.0000
    169 H48          2.2459     3.2129     2.7085 H         1 MOL       0.0000
    170 H49          5.2926    -0.2570     1.3092 H         1 MOL       0.0000
    171 H50          3.7270    -0.1729     4.8050 H         1 MOL       0.0000
    172 H51          0.3072     3.4475     5.7595 H         1 MOL       0.0000
    173 H52          0.2640     3.8110     4.0233 H         1 MOL       0.0000
    174 H53          4.1663    -0.8195     2.5767 H         1 MOL       0.0000
    175 H54          1.5639     0.8950     6.1985 H         1 MOL       0.0000
    176 H55          3.5294    -0.1310     1.1057 H         1 MOL       0.0000
    177 H56         -0.4701     2.2912     4.6131 H         1 MOL       0.0000
    178 N10         -0.4189     0.5849     0.4585 N         1 MOL       0.0000
    179 C61         -1.5620    -0.5322     3.6233 C         1 MOL       0.0000
    180 C62          9.0609    -6.1116    11.5233 C         1 MOL       0.0000
    181 O37         -4.1100    -3.7915    12.8803 O         1 MOL       0.0000
    182 O38          1.5762    -1.6368     2.9145 O         1 MOL       0.0000
    183 O39         -3.5370    -5.8685    11.5205 O         1 MOL       0.0000
    184 O40         -4.4210    13.1468     0.3893 O         1 MOL       0.0000
    185 F7          -2.5286    -0.5148     4.8072 F         1 MOL       0.0000
    186 F8           8.0334    -5.4410    12.0009 F         1 MOL       0.0000
    187 F9           6.6059    12.3817     1.5493 F         1 MOL       0.0000
    188 F10          8.2376    12.1891     3.4622 F         1 MOL       0.0000
    189 F11         10.7722    -5.2882     9.9656 F         1 MOL       0.0000
    190 F12          3.6059     5.6326    11.4898 F         1 MOL       0.0000
    191 S3          -4.4641    -5.0887    12.3123 S         1 MOL       0.0000
    192 S4          -5.4130    13.2580     1.4251 S         1 MOL       0.0000
    193 Ti9         -7.4904    -4.8362    24.3414 Ti        1 MOL       0.0000
    194 Ti10         3.3400    -1.9550    14.9766 Ti        1 MOL       0.0000
    195 Ti11        -3.3938    -8.7724    22.5214 Ti        1 MOL       0.0000
    196 Ti12        -1.8826     0.3897    16.7484 Ti        1 MOL       0.0000
    197 Ti13        -2.8811     2.0680    14.8440 Ti        1 MOL       0.0000
    198 Ti14        -1.5056    -9.0268    24.4748 Ti        1 MOL       0.0000
    199 Ti15        -6.5412    -6.5721    22.4499 Ti        1 MOL       0.0000
    200 Ti16         1.3522    -1.6525    16.8240 Ti        1 MOL       0.0000
    201 H57         -6.9886    -0.9391    24.1219 H         1 MOL       0.0000
    202 H58          4.1488    -5.8611    15.2973 H         1 MOL       0.0000
    203 H59        -11.4503    -5.5929    23.9590 H         1 MOL       0.0000
    204 H60          6.7222     0.0493    15.1772 H         1 MOL       0.0000
    205 H61         -0.5299   -13.0613    24.0889 H         1 MOL       0.0000
    206 H62         -6.9397     1.4781    15.1661 H         1 MOL       0.0000
    207 H63         -7.0217    -6.6348    26.0659 H         1 MOL       0.0000
    208 H64          1.4645    -2.1977    13.2767 H         1 MOL       0.0000
    209 H65         -0.9956    -9.6939    18.9637 H         1 MOL       0.0000
    210 H66         -3.6060     2.2267    20.3673 H         1 MOL       0.0000
    211 H67        -10.6139    -3.1835    22.0940 H         1 MOL       0.0000
    212 H68          6.0948    -4.0393    17.2826 H         1 MOL       0.0000
    213 H69         -8.3127    -4.6309    18.7602 H         1 MOL       0.0000
    214 H70         -5.9812     3.8959    17.1972 H         1 MOL       0.0000
    215 H71         -2.4889     5.1708    15.6995 H         1 MOL       0.0000
    216 H72          3.9910    -7.8799    16.4998 H         1 MOL       0.0000
    217 H73          0.2101     0.0698    15.4098 H         1 MOL       0.0000
    218 H74         -4.4744    -6.9240    23.8150 H         1 MOL       0.0000
    219 H75          2.7292    -7.0919    22.8645 H         1 MOL       0.0000
    220 H76          1.2481    -7.5610    23.6118 H         1 MOL       0.0000
    221 H77          3.3033    -2.6583    21.7655 H         1 MOL       0.0000
    222 H78          2.7336    -2.2997    20.1470 H         1 MOL       0.0000
    223 H79          2.2404   -12.0468    22.6744 H         1 MOL       0.0000
    224 H80          0.9612   -10.9462    23.1318 H         1 MOL       0.0000
    225 C63          3.9181    -2.6963    17.8401 C         1 MOL       0.0000
    226 C64         -8.4510    -4.5749    21.4944 C         1 MOL       0.0000
    227 C65         -0.8132    -9.7831    21.5967 C         1 MOL       0.0000
    228 C66         -3.8187     2.3602    17.7078 C         1 MOL       0.0000
    229 C67          4.8141    -3.3006    18.8353 C         1 MOL       0.0000
    230 C68         -9.3829    -3.9498    20.5173 C         1 MOL       0.0000
    231 C69          0.1269   -10.3975    20.6495 C         1 MOL       0.0000
    232 C70         -4.7085     3.0070    18.7075 C         1 MOL       0.0000
    233 C71          4.5653    -3.2257    20.2417 C         1 MOL       0.0000
    234 C72         -9.1665    -4.0698    19.1293 C         1 MOL       0.0000
    235 C73          1.2564   -11.1578    21.1026 C         1 MOL       0.0000
    236 C74         -5.8032     3.7800    18.2626 C         1 MOL       0.0000
    237 C75         -4.4540     2.8362    20.0624 C         1 MOL       0.0000
    238 C76         -0.1208   -10.2653    19.2656 C         1 MOL       0.0000
    239 C77          5.9478    -3.9996    18.3596 C         1 MOL       0.0000
    240 C78        -10.4831    -3.2574    21.0160 C         1 MOL       0.0000
    241 C79          4.1298    -5.7820    13.1532 C         1 MOL       0.0000
    242 C80         -2.3399     6.0096    13.1782 C         1 MOL       0.0000
    243 C81          1.9793    -7.0849    26.1222 C         1 MOL       0.0000
    244 C82        -11.3790    -5.5425    26.1028 C         1 MOL       0.0000
    245 C83         -1.1358    -1.9535    18.7130 C         1 MOL       0.0000
    246 C84         -5.8919    -9.0479    20.6311 C         1 MOL       0.0000
    247 C85         -0.6410   -11.3932    26.2250 C         1 MOL       0.0000
    248 C86         -2.4326     4.5761    13.1407 C         1 MOL       0.0000
    249 C87          0.6815    -7.7017    26.1690 C         1 MOL       0.0000
    250 C88         -9.9767    -5.1281    26.1273 C         1 MOL       0.0000
    251 C89          4.1692    -6.4511    14.3829 C         1 MOL       0.0000
    252 C90         -6.9776    -0.3507    25.0358 C         1 MOL       0.0000
    253 C91         -8.7304     0.8129    14.1711 C         1 MOL       0.0000
    254 C92        -12.0118    -5.7722    24.8743 C         1 MOL       0.0000
    255 C93          2.6739    -6.8166    24.8888 C         1 MOL       0.0000
    256 C94         -7.4412     1.2931    14.2203 C         1 MOL       0.0000
    257 C95         -0.4883   -13.5885    25.0379 C         1 MOL       0.0000
    258 C96          4.1909    -7.8522    14.4645 C         1 MOL       0.0000
    259 N11          4.2460    -8.4511    15.7026 N         1 MOL       0.0000
    260 N12          2.0949    -6.9995    23.6498 N         1 MOL       0.0000
    261 N13          3.4845    -2.5794    20.7730 N         1 MOL       0.0000
    262 N14          1.5874   -11.3160    22.4200 N         1 MOL       0.0000
    263 O41          2.7418    -2.2912    18.2059 O         1 MOL       0.0000
    264 O42         -7.6820    -5.5257    21.0961 O         1 MOL       0.0000
    265 O43         -0.4318    -9.6587    22.8178 O         1 MOL       0.0000
    266 O44         -3.8845     2.7899    16.5082 O         1 MOL       0.0000
    267 O45         -3.0482     1.4030    18.0942 O         1 MOL       0.0000
    268 O46         -1.9837    -9.4147    21.1912 O         1 MOL       0.0000
    269 O47          4.3300    -2.6155    16.6284 O         1 MOL       0.0000
    270 O48         -8.4930    -4.1386    22.6941 O         1 MOL       0.0000
    271 O49          1.6574    -2.8704    15.6294 O         1 MOL       0.0000
    272 O50         -5.9888    -5.0118    23.1944 O         1 MOL       0.0000
    273 O51          2.5962    -0.5831    16.0793 O         1 MOL       0.0000
    274 O52         -7.7410    -6.7365    23.6871 O         1 MOL       0.0000
    275 O53         -3.1344    -9.9444    23.7818 O         1 MOL       0.0000
    276 O54         -1.3660     1.9510    16.0099 O         1 MOL       0.0000
    277 O55         -2.1805    -7.6829    23.3177 O         1 MOL       0.0000
    278 O56         -3.0722     0.1939    15.4925 O         1 MOL       0.0000
    279 O57          0.0853    -2.1334    18.3587 O         1 MOL       0.0000
    280 O58         -6.5496    -8.0129    21.0093 O         1 MOL       0.0000
    281 O59         -0.7632   -10.7986    25.0839 O         1 MOL       0.0000
    282 O60         -2.5157     3.8746    14.2359 O         1 MOL       0.0000
    283 O61          0.0389    -8.0105    25.0788 O         1 MOL       0.0000
    284 O62         -4.7517     2.0389    14.1758 O         1 MOL       0.0000
    285 O63         -4.7301    -9.3424    21.0889 O         1 MOL       0.0000
    286 O64         -1.8777    -1.0326    18.2196 O         1 MOL       0.0000
    287 O65          4.7771    -0.9359    14.2220 O         1 MOL       0.0000
    288 O66         -9.3772    -4.8963    25.0098 O         1 MOL       0.0000
    289 O67          3.9816    -3.6902    14.2514 O         1 MOL       0.0000
    290 O68         -7.1090    -3.1139    25.0911 O         1 MOL       0.0000
    291 O69         -0.1508    -0.4789    16.1304 O         1 MOL       0.0000
    292 O70         -4.8527    -7.4827    23.1115 O         1 MOL       0.0000
    293 O71          2.3033    -1.7041    13.1976 O         1 MOL       0.0000
    294 O72         -6.8993    -5.6680    26.1259 O         1 MOL       0.0000
    295 H81         -0.8972    -5.5684    21.6561 H         1 MOL       0.0000
    296 H82        -11.2497     3.5062    19.2724 H         1 MOL       0.0000
    297 H83         -0.1965     3.0620    18.7958 H         1 MOL       0.0000
    298 H84          0.0923    -4.0362    19.9356 H         1 MOL       0.0000
    299 H85         -4.5327    -3.2689    21.6133 H         1 MOL       0.0000
    300 H86          7.4744    -9.7838    20.1896 H         1 MOL       0.0000
    301 H87         -3.2358    -5.2225    22.4057 H         1 MOL       0.0000
    302 H88         -3.4989    -1.6724    19.9706 H         1 MOL       0.0000
    303 H89          1.1484     1.3154    17.6491 H         1 MOL       0.0000
    304 H90          3.6083     1.2241    17.9430 H         1 MOL       0.0000
    305 C97         -1.6688    -2.7947    19.8121 C         1 MOL       0.0000
    306 C98         -2.7789    -4.5179    21.7117 C         1 MOL       0.0000
    307 C99          1.6459     2.0577    18.2727 C         1 MOL       0.0000
    308 C100        -6.5598   -10.0494    19.7682 C         1 MOL       0.0000
    309 C101        -2.9503    -2.5406    20.3306 C         1 MOL       0.0000
    310 C102        -1.4637    -4.7201    21.2753 C         1 MOL       0.0000
    311 C103         0.8869     3.0548    18.8984 C         1 MOL       0.0000
    312 C104       -12.3263     3.5321    19.1227 C         1 MOL       0.0000
    313 C105         3.0352     2.0121    18.4276 C         1 MOL       0.0000
    314 C106         8.0422   -10.5737    19.7052 C         1 MOL       0.0000
    315 C107        -0.9118    -3.8681    20.3179 C         1 MOL       0.0000
    316 C108        -3.5140    -3.4170    21.2587 C         1 MOL       0.0000
    317 N15          0.5860     3.4230    14.3272 N         1 MOL       0.0000
    318 N16         -2.6369    -4.5901    26.0258 N         1 MOL       0.0000
    319 C109        -4.1906    -3.0174    26.1899 C         1 MOL       0.0000
    320 C110        -3.3745    -3.6589    25.3215 C         1 MOL       0.0000
    321 C111        -0.3765    -4.4767    25.0058 C         1 MOL       0.0000
    322 C112         0.1700     4.0958    15.5872 C         1 MOL       0.0000
    323 C113         1.5801     2.5084    14.2254 C         1 MOL       0.0000
    324 C114        -1.5182    -5.3777    25.4750 C         1 MOL       0.0000
    325 H91         -4.7918    -2.1344    26.0628 H         1 MOL       0.0000
    326 H92         -3.1577    -3.4356    24.2775 H         1 MOL       0.0000
    327 H93         -0.7071    -3.7820    24.2205 H         1 MOL       0.0000
    328 H94          0.0952     5.1677    15.4285 H         1 MOL       0.0000
    329 H95          0.0581    -3.8945    25.8264 H         1 MOL       0.0000
    330 H96         -0.7828     3.7519    15.9167 H         1 MOL       0.0000
    331 H97          0.4038    -5.1141    24.5679 H         1 MOL       0.0000
    332 H98         -1.9297    -5.9586    24.6421 H         1 MOL       0.0000
    333 H99          0.9247     3.9166    16.3667 H         1 MOL       0.0000
    334 H100         1.9682     1.8664    15.0070 H         1 MOL       0.0000
    335 H101         3.4123     0.9932    13.1712 H         1 MOL       0.0000
    336 N17         -2.5546    -0.0202    26.0422 N         1 MOL       0.0000
    337 C115        -4.1312    -6.4204    14.4759 C         1 MOL       0.0000
    338 C116         4.7587   -12.4148    23.2631 C         1 MOL       0.0000
    339 O73          9.3105    -7.4151    15.7482 O         1 MOL       0.0000
    340 O74          4.7971     4.9298    14.1422 O         1 MOL       0.0000
    341 O75         -3.3508    -1.2008    23.6806 O         1 MOL       0.0000
    342 O76         -0.9154    -0.9864    22.5232 O         1 MOL       0.0000
    343 F13         -4.2766    -5.3250    15.3963 F         1 MOL       0.0000
    344 F14          4.7384   -10.2085    24.8664 F         1 MOL       0.0000
    345 F15         -2.8351    -6.0285    13.7990 F         1 MOL       0.0000
    346 F16         -5.0486    -7.0323    17.2160 F         1 MOL       0.0000
    347 F17          4.1929   -11.2806    22.9519 F         1 MOL       0.0000
    348 F18         -2.0088     1.6001    21.4725 F         1 MOL       0.0000
    349 S5           3.0031     6.4639    13.9977 S         1 MOL       0.0000
    350 S6          -2.0594    -0.5033    23.8185 S         1 MOL       0.0000
    351 N18         -1.3039    -5.5302    16.5866 N         1 MOL       0.0000
    352 N19         -3.0003    -4.7512    17.6684 N         1 MOL       0.0000
    353 C117        -0.2560    -5.7261    15.5660 C         1 MOL       0.0000
    354 C118        -2.2155    -4.5543    16.5923 C         1 MOL       0.0000
    355 C119        -1.5316    -6.4067    17.6774 C         1 MOL       0.0000
    356 C120        -0.2861    -7.1070    14.9228 C         1 MOL       0.0000
    357 C121        -2.5997    -5.9052    18.3640 C         1 MOL       0.0000
    358 C122        -4.2763    -4.0574    17.8593 C         1 MOL       0.0000
    359 H102         0.6980    -5.5099    16.0650 H         1 MOL       0.0000
    360 H103        -0.4130    -4.9224    14.8336 H         1 MOL       0.0000
    361 H104        -2.3891    -3.8531    15.8035 H         1 MOL       0.0000
    362 H105         0.6576    -7.3230    14.4042 H         1 MOL       0.0000
    363 H106        -0.9080    -7.2389    17.9000 H         1 MOL       0.0000
    364 H107        -4.3278    -3.6185    18.8545 H         1 MOL       0.0000
    365 H108        -4.3710    -3.2550    17.1183 H         1 MOL       0.0000
    366 H109        -0.4687    -7.8855    15.6717 H         1 MOL       0.0000
    367 H110        -3.0711    -6.1710    19.2935 H         1 MOL       0.0000
    368 H111        -1.1056    -7.1970    14.2007 H         1 MOL       0.0000
    369 H112        -5.1051    -4.7748    17.7081 H         1 MOL       0.0000
    370 N20         -5.0539    -6.4811    13.5535 N         1 MOL       0.0000
    371 C123        -6.1970    -7.5982    16.7183 C         1 MOL       0.0000
    372 C124         4.4259   -13.1776    24.6183 C         1 MOL       0.0000
    373 O77         -8.7450   -10.8575    25.9753 O         1 MOL       0.0000
    374 O78         -3.0588    -8.7028    16.0095 O         1 MOL       0.0000
    375 O79         -8.1720   -12.9345    24.6155 O         1 MOL       0.0000
    376 O80         -9.0560     6.0808    13.4843 O         1 MOL       0.0000
    377 F19         -7.1636    -7.5808    17.9022 F         1 MOL       0.0000
    378 F20          3.3984   -12.5070    25.0959 F         1 MOL       0.0000
    379 F21          1.9709     5.3157    14.6443 F         1 MOL       0.0000
    380 F22          3.6026     5.1231    16.5572 F         1 MOL       0.0000
    381 F23          6.1372   -12.3542    23.0606 F         1 MOL       0.0000
    382 F24         -1.0291    -1.4334    24.5848 F         1 MOL       0.0000
    383 S7          -9.0991   -12.1547    25.4073 S         1 MOL       0.0000
    384 S8         -10.0480     6.1920    14.5201 S         1 MOL       0.0000
    385 Ti17        -9.3724    16.8428    11.1894 Ti        1 MOL       0.0000
    386 Ti18         1.4580    19.7240     1.8246 Ti        1 MOL       0.0000
    387 Ti19        -5.2758    12.9066     9.3694 Ti        1 MOL       0.0000
    388 Ti20        -3.7646    22.0687     3.5964 Ti        1 MOL       0.0000
    389 Ti21        -4.7631    23.7470     1.6920 Ti        1 MOL       0.0000
    390 Ti22        -3.3876    12.6522    11.3228 Ti        1 MOL       0.0000
    391 Ti23        -8.4232    15.1069     9.2979 Ti        1 MOL       0.0000
    392 Ti24        -0.5298    20.0265     3.6721 Ti        1 MOL       0.0000
    393 H113        -8.8706    20.7399    10.9699 H         1 MOL       0.0000
    394 H114         2.2668    15.8179     2.1453 H         1 MOL       0.0000
    395 H115       -13.3323    16.0861    10.8070 H         1 MOL       0.0000
    396 H116         4.8402    21.7283     2.0252 H         1 MOL       0.0000
    397 H117        -2.4119     8.6177    10.9369 H         1 MOL       0.0000
    398 H118        -8.8217    23.1571     2.0141 H         1 MOL       0.0000
    399 H119        -8.9037    15.0442    12.9139 H         1 MOL       0.0000
    400 H120        -0.4175    19.4813     0.1247 H         1 MOL       0.0000
    401 H121        -2.8776    11.9851     5.8117 H         1 MOL       0.0000
    402 H122        -5.4880    23.9057     7.2153 H         1 MOL       0.0000
    403 H123       -12.4959    18.4955     8.9420 H         1 MOL       0.0000
    404 H124         4.2128    17.6396     4.1306 H         1 MOL       0.0000
    405 H125       -10.1948    17.0481     5.6082 H         1 MOL       0.0000
    406 H126        -7.8632    25.5749     4.0452 H         1 MOL       0.0000
    407 H127        -4.3709    26.8498     2.5475 H         1 MOL       0.0000
    408 H128         2.1090    13.7991     3.3478 H         1 MOL       0.0000
    409 H129        -1.6719    21.7488     2.2578 H         1 MOL       0.0000
    410 H130        -6.3565    14.7550    10.6630 H         1 MOL       0.0000
    411 H131         0.8472    14.5871     9.7125 H         1 MOL       0.0000
    412 H132        -0.6339    14.1180    10.4598 H         1 MOL       0.0000
    413 H133         1.4213    19.0207     8.6136 H         1 MOL       0.0000
    414 H134         0.8516    19.3793     6.9950 H         1 MOL       0.0000
    415 H135         0.3584     9.6322     9.5224 H         1 MOL       0.0000
    416 H136        -0.9208    10.7328     9.9798 H         1 MOL       0.0000
    417 C125         2.0361    18.9827     4.6881 C         1 MOL       0.0000
    418 C126       -10.3330    17.1042     8.3424 C         1 MOL       0.0000
    419 C127        -2.6952    11.8959     8.4447 C         1 MOL       0.0000
    420 C128        -5.7007    24.0392     4.5557 C         1 MOL       0.0000
    421 C129         2.9321    18.3784     5.6833 C         1 MOL       0.0000
    422 C130       -11.2649    17.7292     7.3653 C         1 MOL       0.0000
    423 C131        -1.7550    11.2815     7.4975 C         1 MOL       0.0000
    424 C132        -6.5905    24.6860     5.5555 C         1 MOL       0.0000
    425 C133         2.6833    18.4533     7.0897 C         1 MOL       0.0000
    426 C134       -11.0485    17.6092     5.9773 C         1 MOL       0.0000
    427 C135        -0.6256    10.5212     7.9506 C         1 MOL       0.0000
    428 C136        -7.6852    25.4590     5.1106 C         1 MOL       0.0000
    429 C137        -6.3360    24.5152     6.9104 C         1 MOL       0.0000
    430 C138        -2.0028    11.4136     6.1136 C         1 MOL       0.0000
    431 C139         4.0658    17.6794     5.2076 C         1 MOL       0.0000
    432 C140       -12.3651    18.4216     7.8640 C         1 MOL       0.0000
    433 C141         2.2478    15.8970     0.0012 C         1 MOL       0.0000
    434 C142        -4.2219    27.6886     0.0262 C         1 MOL       0.0000
    435 C143         0.0973    14.5941    12.9702 C         1 MOL       0.0000
    436 C144       -13.2610    16.1365    12.9508 C         1 MOL       0.0000
    437 C145        -3.0178    19.7255     5.5610 C         1 MOL       0.0000
    438 C146        -7.7739    12.6311     7.4791 C         1 MOL       0.0000
    439 C147        -2.5230    10.2858    13.0730 C         1 MOL       0.0000
    440 C148        -4.3146    26.2551    -0.0113 C         1 MOL       0.0000
    441 C149        -1.2006    13.9773    13.0170 C         1 MOL       0.0000
    442 C150       -11.8587    16.5509    12.9753 C         1 MOL       0.0000
    443 C151         2.2872    15.2279     1.2309 C         1 MOL       0.0000
    444 C152        -8.8596    21.3283    11.8838 C         1 MOL       0.0000
    445 C153       -10.6124    22.4919     1.0191 C         1 MOL       0.0000
    446 C154       -13.8938    15.9068    11.7223 C         1 MOL       0.0000
    447 C155         0.7919    14.8624    11.7368 C         1 MOL       0.0000
    448 C156        -9.3232    22.9721     1.0683 C         1 MOL       0.0000
    449 C157        -2.3703     8.0905    11.8859 C         1 MOL       0.0000
    450 C158         2.3089    13.8268     1.3125 C         1 MOL       0.0000
    451 N21          2.3640    13.2279     2.5506 N         1 MOL       0.0000
    452 N22          0.2129    14.6795    10.4978 N         1 MOL       0.0000
    453 N23          1.6025    19.0996     7.6210 N         1 MOL       0.0000
    454 N24         -0.2946    10.3630     9.2680 N         1 MOL       0.0000
    455 O81          0.8598    19.3878     5.0539 O         1 MOL       0.0000
    456 O82         -9.5640    16.1533     7.9441 O         1 MOL       0.0000
    457 O83         -2.3138    12.0203     9.6658 O         1 MOL       0.0000
    458 O84         -5.7665    24.4689     3.3561 O         1 MOL       0.0000
    459 O85         -4.9302    23.0820     4.9422 O         1 MOL       0.0000
    460 O86         -3.8657    12.2643     8.0392 O         1 MOL       0.0000
    461 O87          2.4480    19.0635     3.4764 O         1 MOL       0.0000
    462 O88        -10.3750    17.5404     9.5421 O         1 MOL       0.0000
    463 O89         -0.2246    18.8086     2.4774 O         1 MOL       0.0000
    464 O90         -7.8708    16.6672    10.0424 O         1 MOL       0.0000
    465 O91          0.7142    21.0959     2.9273 O         1 MOL       0.0000
    466 O92         -9.6230    14.9425    10.5351 O         1 MOL       0.0000
    467 O93         -5.0164    11.7346    10.6298 O         1 MOL       0.0000
    468 O94         -3.2480    23.6300     2.8579 O         1 MOL       0.0000
    469 O95         -4.0625    13.9961    10.1657 O         1 MOL       0.0000
    470 O96         -4.9542    21.8729     2.3405 O         1 MOL       0.0000
    471 O97         -1.7967    19.5457     5.2067 O         1 MOL       0.0000
    472 O98         -8.4316    13.6661     7.8573 O         1 MOL       0.0000
    473 O99         -2.6452    10.8804    11.9319 O         1 MOL       0.0000
    474 O100        -4.3977    25.5536     1.0839 O         1 MOL       0.0000
    475 O101        -1.8431    13.6685    11.9268 O         1 MOL       0.0000
    476 O102        -6.6337    23.7179     1.0238 O         1 MOL       0.0000
    477 O103        -6.6121    12.3366     7.9369 O         1 MOL       0.0000
    478 O104        -3.7597    20.6464     5.0676 O         1 MOL       0.0000
    479 O105         2.8951    20.7431     1.0700 O         1 MOL       0.0000
    480 O106       -11.2592    16.7827    11.8578 O         1 MOL       0.0000
    481 O107         2.0995    17.9888     1.0994 O         1 MOL       0.0000
    482 O108        -8.9910    18.5650    11.9391 O         1 MOL       0.0000
    483 O109        -2.0328    21.2001     2.9784 O         1 MOL       0.0000
    484 O110        -6.7347    14.1963     9.9595 O         1 MOL       0.0000
    485 O111         0.4213    19.9749     0.0456 O         1 MOL       0.0000
    486 O112        -8.7813    16.0110    12.9739 O         1 MOL       0.0000
    487 H137        -2.7792    16.1106     8.5041 H         1 MOL       0.0000
    488 H138       -13.1317    25.1852     6.1204 H         1 MOL       0.0000
    489 H139        -2.0785    24.7410     5.6438 H         1 MOL       0.0000
    490 H140        -1.7897    17.6428     6.7836 H         1 MOL       0.0000
    491 H141        -6.4147    18.4101     8.4613 H         1 MOL       0.0000
    492 H142         5.5924    11.8952     7.0376 H         1 MOL       0.0000
    493 H143        -5.1178    16.4565     9.2537 H         1 MOL       0.0000
    494 H144        -5.3809    20.0066     6.8186 H         1 MOL       0.0000
    495 H145        -0.7336    22.9944     4.4971 H         1 MOL       0.0000
    496 H146         1.7263    22.9031     4.7910 H         1 MOL       0.0000
    497 C159        -3.5508    18.8843     6.6601 C         1 MOL       0.0000
    498 C160        -4.6609    17.1611     8.5597 C         1 MOL       0.0000
    499 C161        -0.2361    23.7367     5.1207 C         1 MOL       0.0000
    500 C162        -8.4418    11.6296     6.6162 C         1 MOL       0.0000
    501 C163        -4.8323    19.1384     7.1786 C         1 MOL       0.0000
    502 C164        -3.3457    16.9589     8.1233 C         1 MOL       0.0000
    503 C165        -0.9951    24.7338     5.7464 C         1 MOL       0.0000
    504 C166       -14.2083    25.2111     5.9707 C         1 MOL       0.0000
    505 C167         1.1532    23.6911     5.2756 C         1 MOL       0.0000
    506 C168         6.1602    11.1053     6.5532 C         1 MOL       0.0000
    507 C169        -2.7938    17.8109     7.1659 C         1 MOL       0.0000
    508 C170        -5.3960    18.2620     8.1067 C         1 MOL       0.0000
    509 N25         -1.2960    25.1020     1.1752 N         1 MOL       0.0000
    510 N26         -4.5189    17.0889    12.8738 N         1 MOL       0.0000
    511 C171        -6.0726    18.6616    13.0379 C         1 MOL       0.0000
    512 C172        -5.2565    18.0201    12.1695 C         1 MOL       0.0000
    513 C173        -2.2585    17.2023    11.8538 C         1 MOL       0.0000
    514 C174        -1.7120    25.7748     2.4352 C         1 MOL       0.0000
    515 C175        -0.3019    24.1874     1.0734 C         1 MOL       0.0000
    516 C176        -3.4002    16.3013    12.3230 C         1 MOL       0.0000
    517 H147        -6.6738    19.5446    12.9108 H         1 MOL       0.0000
    518 H148        -5.0397    18.2434    11.1255 H         1 MOL       0.0000
    519 H149        -2.5891    17.8970    11.0685 H         1 MOL       0.0000
    520 H150        -1.7868    26.8467     2.2765 H         1 MOL       0.0000
    521 H151        -1.8239    17.7845    12.6744 H         1 MOL       0.0000
    522 H152        -2.6648    25.4309     2.7647 H         1 MOL       0.0000
    523 H153        -1.4782    16.5649    11.4159 H         1 MOL       0.0000
    524 H154        -3.8117    15.7204    11.4901 H         1 MOL       0.0000
    525 H155        -0.9573    25.5956     3.2147 H         1 MOL       0.0000
    526 H156         0.0862    23.5454     1.8550 H         1 MOL       0.0000
    527 H157         1.5303    22.6722     0.0192 H         1 MOL       0.0000
    528 N27         -4.4366    21.6588    12.8902 N         1 MOL       0.0000
    529 C177        -6.0132    15.2586     1.3239 C         1 MOL       0.0000
    530 C178         2.8767     9.2642    10.1111 C         1 MOL       0.0000
    531 O113         7.4285    14.2639     2.5962 O         1 MOL       0.0000
    532 O114         2.9151    26.6088     0.9902 O         1 MOL       0.0000
    533 O115        -5.2328    20.4782    10.5286 O         1 MOL       0.0000
    534 O116        -2.7974    20.6926     9.3712 O         1 MOL       0.0000
    535 F25         -6.1586    16.3540     2.2443 F         1 MOL       0.0000
    536 F26          2.8564    11.4705    11.7144 F         1 MOL       0.0000
    537 F27         -4.7171    15.6505     0.6470 F         1 MOL       0.0000
    538 F28         -6.9306    14.6467     4.0640 F         1 MOL       0.0000
    539 F29          2.3109    10.3984     9.7999 F         1 MOL       0.0000
    540 F30         -3.8908    23.2791     8.3205 F         1 MOL       0.0000
    541 S9           1.1211    28.1429     0.8457 S         1 MOL       0.0000
    542 S10         -3.9414    21.1757    10.6665 S         1 MOL       0.0000
    543 N28         -3.1859    16.1488     3.4346 N         1 MOL       0.0000
    544 N29         -4.8823    16.9278     4.5164 N         1 MOL       0.0000
    545 C179        -2.1380    15.9529     2.4140 C         1 MOL       0.0000
    546 C180        -4.0975    17.1247     3.4403 C         1 MOL       0.0000
    547 C181        -3.4136    15.2723     4.5254 C         1 MOL       0.0000
    548 C182        -2.1681    14.5720     1.7708 C         1 MOL       0.0000
    549 C183        -4.4817    15.7738     5.2120 C         1 MOL       0.0000
    550 C184        -6.1583    17.6216     4.7073 C         1 MOL       0.0000
    551 H158        -1.1840    16.1691     2.9130 H         1 MOL       0.0000
    552 H159        -2.2950    16.7566     1.6816 H         1 MOL       0.0000
    553 H160        -4.2711    17.8259     2.6515 H         1 MOL       0.0000
    554 H161        -1.2244    14.3560     1.2522 H         1 MOL       0.0000
    555 H162        -2.7900    14.4401     4.7480 H         1 MOL       0.0000
    556 H163        -6.2098    18.0605     5.7025 H         1 MOL       0.0000
    557 H164        -6.2530    18.4240     3.9663 H         1 MOL       0.0000
    558 H165        -2.3507    13.7935     2.5197 H         1 MOL       0.0000
    559 H166        -4.9531    15.5080     6.1415 H         1 MOL       0.0000
    560 H167        -2.9876    14.4820     1.0487 H         1 MOL       0.0000
    561 H168        -6.9871    16.9042     4.5561 H         1 MOL       0.0000
    562 N30         -6.9359    15.1979     0.4015 N         1 MOL       0.0000
    563 C185        -8.0790    14.0808     3.5663 C         1 MOL       0.0000
    564 C186         2.5439     8.5014    11.4663 C         1 MOL       0.0000
    565 O117       -10.6270    10.8215    12.8233 O         1 MOL       0.0000
    566 O118        -4.9408    12.9762     2.8575 O         1 MOL       0.0000
    567 O119       -10.0540     8.7445    11.4635 O         1 MOL       0.0000
    568 O120       -10.9380    27.7598     0.3323 O         1 MOL       0.0000
    569 F31         -9.0456    14.0982     4.7502 F         1 MOL       0.0000
    570 F32          1.5164     9.1720    11.9439 F         1 MOL       0.0000
    571 F33          0.0889    26.9947     1.4923 F         1 MOL       0.0000
    572 F34          1.7206    26.8021     3.4052 F         1 MOL       0.0000
    573 F35          4.2552     9.3248     9.9086 F         1 MOL       0.0000
    574 F36         -2.9111    20.2456    11.4328 F         1 MOL       0.0000
    575 S11        -10.9811     9.5243    12.2553 S         1 MOL       0.0000
    576 S12        -11.9300    27.8710     1.3681 S         1 MOL       0.0000
    577 Ti25       -14.0074     9.7768    24.2844 Ti        1 MOL       0.0000
    578 Ti26        -3.1770    12.6580    14.9196 Ti        1 MOL       0.0000
    579 Ti27        -9.9108     5.8406    22.4644 Ti        1 MOL       0.0000
    580 Ti28        -8.3996    15.0027    16.6914 Ti        1 MOL       0.0000
    581 Ti29        -9.3981    16.6810    14.7870 Ti        1 MOL       0.0000
    582 Ti30        -8.0226     5.5862    24.4178 Ti        1 MOL       0.0000
    583 Ti31       -13.0582     8.0409    22.3929 Ti        1 MOL       0.0000
    584 Ti32        -5.1648    12.9605    16.7671 Ti        1 MOL       0.0000
    585 H169       -13.5056    13.6739    24.0649 H         1 MOL       0.0000
    586 H170        -2.3682     8.7519    15.2403 H         1 MOL       0.0000
    587 H171       -17.9673     9.0201    23.9020 H         1 MOL       0.0000
    588 H172         0.2052    14.6623    15.1202 H         1 MOL       0.0000
    589 H173        -7.0469     1.5517    24.0319 H         1 MOL       0.0000
    590 H174       -13.4567    16.0911    15.1091 H         1 MOL       0.0000
    591 H175       -13.5387     7.9782    26.0089 H         1 MOL       0.0000
    592 H176        -5.0525    12.4153    13.2196 H         1 MOL       0.0000
    593 H177        -7.5126     4.9191    18.9067 H         1 MOL       0.0000
    594 H178       -10.1230    16.8397    20.3103 H         1 MOL       0.0000
    595 H179       -17.1309    11.4295    22.0370 H         1 MOL       0.0000
    596 H180        -0.4222    10.5736    17.2256 H         1 MOL       0.0000
    597 H181       -14.8298     9.9821    18.7032 H         1 MOL       0.0000
    598 H182       -12.4982    18.5089    17.1402 H         1 MOL       0.0000
    599 H183        -9.0059    19.7838    15.6425 H         1 MOL       0.0000
    600 H184        -2.5260     6.7331    16.4428 H         1 MOL       0.0000
    601 H185        -6.3069    14.6828    15.3528 H         1 MOL       0.0000
    602 H186       -10.9915     7.6890    23.7580 H         1 MOL       0.0000
    603 H187        -3.7878     7.5211    22.8075 H         1 MOL       0.0000
    604 H188        -5.2689     7.0520    23.5548 H         1 MOL       0.0000
    605 H189        -3.2137    11.9547    21.7085 H         1 MOL       0.0000
    606 H190        -3.7834    12.3133    20.0900 H         1 MOL       0.0000
    607 H191        -4.2766     2.5662    22.6174 H         1 MOL       0.0000
    608 H192        -5.5558     3.6668    23.0748 H         1 MOL       0.0000
    609 C187        -2.5989    11.9167    17.7831 C         1 MOL       0.0000
    610 C188       -14.9680    10.0381    21.4374 C         1 MOL       0.0000
    611 C189        -7.3302     4.8299    21.5397 C         1 MOL       0.0000
    612 C190       -10.3357    16.9732    17.6507 C         1 MOL       0.0000
    613 C191        -1.7029    11.3124    18.7783 C         1 MOL       0.0000
    614 C192       -15.8999    10.6632    20.4603 C         1 MOL       0.0000
    615 C193        -6.3900     4.2155    20.5925 C         1 MOL       0.0000
    616 C194       -11.2255    17.6200    18.6505 C         1 MOL       0.0000
    617 C195        -1.9517    11.3873    20.1847 C         1 MOL       0.0000
    618 C196       -15.6835    10.5432    19.0723 C         1 MOL       0.0000
    619 C197        -5.2606     3.4552    21.0456 C         1 MOL       0.0000
    620 C198       -12.3202    18.3930    18.2056 C         1 MOL       0.0000
    621 C199       -10.9710    17.4492    20.0054 C         1 MOL       0.0000
    622 C200        -6.6378     4.3476    19.2086 C         1 MOL       0.0000
    623 C201        -0.5692    10.6134    18.3026 C         1 MOL       0.0000
    624 C202       -17.0001    11.3556    20.9590 C         1 MOL       0.0000
    625 C203        -2.3872     8.8310    13.0962 C         1 MOL       0.0000
    626 C204        -8.8569    20.6226    13.1212 C         1 MOL       0.0000
    627 C205        -4.5377     7.5281    26.0652 C         1 MOL       0.0000
    628 C206       -17.8960     9.0705    26.0458 C         1 MOL       0.0000
    629 C207        -7.6528    12.6595    18.6560 C         1 MOL       0.0000
    630 C208       -12.4089     5.5651    20.5741 C         1 MOL       0.0000
    631 C209        -7.1580     3.2199    26.1680 C         1 MOL       0.0000
    632 C210        -8.9496    19.1891    13.0837 C         1 MOL       0.0000
    633 C211        -5.8355     6.9113    26.1120 C         1 MOL       0.0000
    634 C212       -16.4937     9.4849    26.0703 C         1 MOL       0.0000
    635 C213        -2.3478     8.1619    14.3259 C         1 MOL       0.0000
    636 C214       -13.4946    14.2623    24.9788 C         1 MOL       0.0000
    637 C215       -15.2474    15.4259    14.1141 C         1 MOL       0.0000
    638 C216       -18.5288     8.8408    24.8173 C         1 MOL       0.0000
    639 C217        -3.8431     7.7964    24.8318 C         1 MOL       0.0000
    640 C218       -13.9582    15.9061    14.1633 C         1 MOL       0.0000
    641 C219        -7.0053     1.0245    24.9809 C         1 MOL       0.0000
    642 C220        -2.3261     6.7608    14.4075 C         1 MOL       0.0000
    643 N31         -2.2710     6.1619    15.6456 N         1 MOL       0.0000
    644 N32         -4.4221     7.6135    23.5928 N         1 MOL       0.0000
    645 N33         -3.0325    12.0336    20.7160 N         1 MOL       0.0000
    646 N34         -4.9296     3.2970    22.3630 N         1 MOL       0.0000
    647 O121        -3.7752    12.3218    18.1489 O         1 MOL       0.0000
    648 O122       -14.1990     9.0873    21.0391 O         1 MOL       0.0000
    649 O123        -6.9488     4.9543    22.7608 O         1 MOL       0.0000
    650 O124       -10.4015    17.4029    16.4512 O         1 MOL       0.0000
    651 O125        -9.5652    16.0160    18.0372 O         1 MOL       0.0000
    652 O126        -8.5007     5.1983    21.1342 O         1 MOL       0.0000
    653 O127        -2.1870    11.9975    16.5714 O         1 MOL       0.0000
    654 O128       -15.0100    10.4744    22.6371 O         1 MOL       0.0000
    655 O129        -4.8596    11.7426    15.5724 O         1 MOL       0.0000
    656 O130       -12.5058     9.6012    23.1374 O         1 MOL       0.0000
    657 O131        -3.9208    14.0299    16.0223 O         1 MOL       0.0000
    658 O132       -14.2580     7.8765    23.6301 O         1 MOL       0.0000
    659 O133        -9.6515     4.6686    23.7248 O         1 MOL       0.0000
    660 O134        -7.8830    16.5640    15.9529 O         1 MOL       0.0000
    661 O135        -8.6975     6.9301    23.2607 O         1 MOL       0.0000
    662 O136        -9.5892    14.8069    15.4355 O         1 MOL       0.0000
    663 O137        -6.4317    12.4797    18.3017 O         1 MOL       0.0000
    664 O138       -13.0666     6.6001    20.9523 O         1 MOL       0.0000
    665 O139        -7.2802     3.8144    25.0269 O         1 MOL       0.0000
    666 O140        -9.0327    18.4876    14.1789 O         1 MOL       0.0000
    667 O141        -6.4781     6.6025    25.0218 O         1 MOL       0.0000
    668 O142       -11.2687    16.6519    14.1188 O         1 MOL       0.0000
    669 O143       -11.2471     5.2706    21.0319 O         1 MOL       0.0000
    670 O144        -8.3947    13.5804    18.1626 O         1 MOL       0.0000
    671 O145        -1.7399    13.6771    14.1650 O         1 MOL       0.0000
    672 O146       -15.8942     9.7167    24.9528 O         1 MOL       0.0000
    673 O147        -2.5355    10.9228    14.1944 O         1 MOL       0.0000
    674 O148       -13.6260    11.4990    25.0341 O         1 MOL       0.0000
    675 O149        -6.6678    14.1341    16.0734 O         1 MOL       0.0000
    676 O150       -11.3697     7.1303    23.0545 O         1 MOL       0.0000
    677 O151        -4.2137    12.9089    13.1406 O         1 MOL       0.0000
    678 O152       -13.4163     8.9450    26.0689 O         1 MOL       0.0000
    679 H193        -7.4142     9.0446    21.5991 H         1 MOL       0.0000
    680 H194       -17.7667    18.1192    19.2154 H         1 MOL       0.0000
    681 H195        -6.7135    17.6750    18.7388 H         1 MOL       0.0000
    682 H196        -6.4247    10.5768    19.8786 H         1 MOL       0.0000
    683 H197       -11.0497    11.3441    21.5563 H         1 MOL       0.0000
    684 H198         0.9574     4.8292    20.1326 H         1 MOL       0.0000
    685 H199        -9.7528     9.3905    22.3487 H         1 MOL       0.0000
    686 H200       -10.0159    12.9406    19.9136 H         1 MOL       0.0000
    687 H201        -5.3686    15.9284    17.5921 H         1 MOL       0.0000
    688 H202        -2.9087    15.8371    17.8860 H         1 MOL       0.0000
    689 C221        -8.1858    11.8183    19.7551 C         1 MOL       0.0000
    690 C222        -9.2959    10.0951    21.6547 C         1 MOL       0.0000
    691 C223        -4.8711    16.6707    18.2157 C         1 MOL       0.0000
    692 C224       -13.0768     4.5636    19.7112 C         1 MOL       0.0000
    693 C225        -9.4673    12.0724    20.2736 C         1 MOL       0.0000
    694 C226        -7.9807     9.8929    21.2183 C         1 MOL       0.0000
    695 C227        -5.6301    17.6678    18.8414 C         1 MOL       0.0000
    696 C228       -18.8433    18.1451    19.0657 C         1 MOL       0.0000
    697 C229        -3.4818    16.6251    18.3706 C         1 MOL       0.0000
    698 C230         1.5252     4.0393    19.6482 C         1 MOL       0.0000
    699 C231        -7.4288    10.7449    20.2609 C         1 MOL       0.0000
    700 C232       -10.0310    11.1960    21.2017 C         1 MOL       0.0000
    701 N35         -5.9310    18.0360    14.2702 N         1 MOL       0.0000
    702 N36         -9.1539    10.0229    25.9688 N         1 MOL       0.0000
    703 C233       -10.7076    11.5956    26.1329 C         1 MOL       0.0000
    704 C234        -9.8915    10.9541    25.2645 C         1 MOL       0.0000
    705 C235        -6.8935    10.1363    24.9488 C         1 MOL       0.0000
    706 C236        -6.3470    18.7088    15.5302 C         1 MOL       0.0000
    707 C237        -4.9369    17.1214    14.1684 C         1 MOL       0.0000
    708 C238        -8.0352     9.2353    25.4180 C         1 MOL       0.0000
    709 H203       -11.3088    12.4786    26.0058 H         1 MOL       0.0000
    710 H204        -9.6747    11.1774    24.2205 H         1 MOL       0.0000
    711 H205        -7.2241    10.8310    24.1635 H         1 MOL       0.0000
    712 H206        -6.4218    19.7807    15.3715 H         1 MOL       0.0000
    713 H207        -6.4589    10.7185    25.7694 H         1 MOL       0.0000
    714 H208        -7.2998    18.3649    15.8597 H         1 MOL       0.0000
    715 H209        -6.1132     9.4989    24.5109 H         1 MOL       0.0000
    716 H210        -8.4467     8.6544    24.5851 H         1 MOL       0.0000
    717 H211        -5.5923    18.5296    16.3097 H         1 MOL       0.0000
    718 H212        -4.5488    16.4794    14.9500 H         1 MOL       0.0000
    719 H213        -3.1047    15.6062    13.1142 H         1 MOL       0.0000
    720 N37         -9.0716    14.5928    25.9852 N         1 MOL       0.0000
    721 C239       -10.6482     8.1926    14.4189 C         1 MOL       0.0000
    722 C240        -1.7583     2.1982    23.2061 C         1 MOL       0.0000
    723 O153         2.7935     7.1979    15.6912 O         1 MOL       0.0000
    724 O154        -1.7199    19.5428    14.0852 O         1 MOL       0.0000
    725 O155        -9.8678    13.4122    23.6236 O         1 MOL       0.0000
    726 O156        -7.4324    13.6266    22.4662 O         1 MOL       0.0000
    727 F37        -10.7936     9.2880    15.3393 F         1 MOL       0.0000
    728 F38         -1.7786     4.4045    24.8094 F         1 MOL       0.0000
    729 F39         -9.3521     8.5845    13.7420 F         1 MOL       0.0000
    730 F40        -11.5656     7.5807    17.1590 F         1 MOL       0.0000
    731 F41         -2.3241     3.3324    22.8949 F         1 MOL       0.0000
    732 F42         -8.5258    16.2131    21.4155 F         1 MOL       0.0000
    733 S13         -3.5139    21.0769    13.9407 S         1 MOL       0.0000
    734 S14         -8.5764    14.1097    23.7615 S         1 MOL       0.0000
    735 N38         -7.8209     9.0828    16.5296 N         1 MOL       0.0000
    736 N39         -9.5173     9.8618    17.6114 N         1 MOL       0.0000
    737 C241        -6.7730     8.8869    15.5090 C         1 MOL       0.0000
    738 C242        -8.7325    10.0587    16.5353 C         1 MOL       0.0000
    739 C243        -8.0486     8.2063    17.6204 C         1 MOL       0.0000
    740 C244        -6.8031     7.5060    14.8658 C         1 MOL       0.0000
    741 C245        -9.1167     8.7078    18.3070 C         1 MOL       0.0000
    742 C246       -10.7933    10.5556    17.8023 C         1 MOL       0.0000
    743 H214        -5.8190     9.1031    16.0080 H         1 MOL       0.0000
    744 H215        -6.9300     9.6906    14.7766 H         1 MOL       0.0000
    745 H216        -8.9061    10.7599    15.7465 H         1 MOL       0.0000
    746 H217        -5.8594     7.2900    14.3472 H         1 MOL       0.0000
    747 H218        -7.4250     7.3741    17.8430 H         1 MOL       0.0000
    748 H219       -10.8448    10.9945    18.7975 H         1 MOL       0.0000
    749 H220       -10.8880    11.3580    17.0613 H         1 MOL       0.0000
    750 H221        -6.9857     6.7275    15.6147 H         1 MOL       0.0000
    751 H222        -9.5881     8.4420    19.2365 H         1 MOL       0.0000
    752 H223        -7.6226     7.4160    14.1437 H         1 MOL       0.0000
    753 H224       -11.6221     9.8382    17.6511 H         1 MOL       0.0000
    754 N40        -11.5709     8.1319    13.4965 N         1 MOL       0.0000
    755 C247       -12.7140     7.0148    16.6613 C         1 MOL       0.0000
    756 C248        -2.0911     1.4354    24.5613 C         1 MOL       0.0000
    757 O157       -15.2620     3.7555    25.9183 O         1 MOL       0.0000
    758 O158        -9.5758     5.9102    15.9525 O         1 MOL       0.0000
    759 O159       -14.6890     1.6785    24.5585 O         1 MOL       0.0000
    760 O160       -15.5730    20.6938    13.4273 O         1 MOL       0.0000
    761 F43        -13.6806     7.0322    17.8452 F         1 MOL       0.0000
    762 F44         -3.1186     2.1060    25.0389 F         1 MOL       0.0000
    763 F45         -4.5461    19.9287    14.5873 F         1 MOL       0.0000
    764 F46         -2.9144    19.7361    16.5002 F         1 MOL       0.0000
    765 F47         -0.3798     2.2588    23.0036 F         1 MOL       0.0000
    766 F48         -7.5461    13.1796    24.5278 F         1 MOL       0.0000
    767 S15        -15.6161     2.4583    25.3503 S         1 MOL       0.0000
    768 S16        -16.5650    20.8050    14.4631 S         1 MOL       0.0000
    769 Ti33        13.1446     1.6728    11.3364 Ti        1 MOL       0.0000
    770 Ti34        23.9750     4.5540     1.9716 Ti        1 MOL       0.0000
    771 Ti35        17.2413    -2.2634     9.5164 Ti        1 MOL       0.0000
    772 Ti36        18.7524     6.8987     3.7434 Ti        1 MOL       0.0000
    773 Ti37        17.7539     8.5770     1.8390 Ti        1 MOL       0.0000
    774 Ti38        19.1295    -2.5178    11.4698 Ti        1 MOL       0.0000
    775 Ti39        14.0938    -0.0631     9.4449 Ti        1 MOL       0.0000
    776 Ti40        21.9872     4.8565     3.8191 Ti        1 MOL       0.0000
    777 H225        13.6464     5.5698    11.1169 H         1 MOL       0.0000
    778 H226        24.7838     0.6479     2.2923 H         1 MOL       0.0000
    779 H227         9.1847     0.9161    10.9540 H         1 MOL       0.0000
    780 H228        27.3572     6.5583     2.1722 H         1 MOL       0.0000
    781 H229        20.1051    -6.5523    11.0839 H         1 MOL       0.0000
    782 H230        13.6953     7.9871     2.1610 H         1 MOL       0.0000
    783 H231        13.6133    -0.1258    13.0609 H         1 MOL       0.0000
    784 H232        22.0995     4.3113     0.2717 H         1 MOL       0.0000
    785 H233        19.6394    -3.1849     5.9587 H         1 MOL       0.0000
    786 H234        17.0290     8.7357     7.3624 H         1 MOL       0.0000
    787 H235        10.0211     3.3255     9.0890 H         1 MOL       0.0000
    788 H236        26.7298     2.4697     4.2776 H         1 MOL       0.0000
    789 H237        12.3222     1.8781     5.7552 H         1 MOL       0.0000
    790 H238        14.6538    10.4049     4.1922 H         1 MOL       0.0000
    791 H239        18.1461    11.6798     2.6945 H         1 MOL       0.0000
    792 H240        24.6260    -1.3709     3.4948 H         1 MOL       0.0000
    793 H241        20.8451     6.5788     2.4048 H         1 MOL       0.0000
    794 H242        16.1605    -0.4150    10.8100 H         1 MOL       0.0000
    795 H243        23.3642    -0.5829     9.8595 H         1 MOL       0.0000
    796 H244        21.8831    -1.0520    10.6068 H         1 MOL       0.0000
    797 H245        23.9383     3.8507     8.7606 H         1 MOL       0.0000
    798 H246        23.3686     4.2093     7.1420 H         1 MOL       0.0000
    799 H247        22.8754    -5.5378     9.6694 H         1 MOL       0.0000
    800 H248        21.5962    -4.4372    10.1268 H         1 MOL       0.0000
    801 C249        24.5531     3.8127     4.8351 C         1 MOL       0.0000
    802 C250        12.1840     1.9341     8.4894 C         1 MOL       0.0000
    803 C251        19.8218    -3.2741     8.5917 C         1 MOL       0.0000
    804 C252        16.8163     8.8692     4.7027 C         1 MOL       0.0000
    805 C253        25.4491     3.2084     5.8303 C         1 MOL       0.0000
    806 C254        11.2521     2.5592     7.5123 C         1 MOL       0.0000
    807 C255        20.7620    -3.8885     7.6445 C         1 MOL       0.0000
    808 C256        15.9265     9.5160     5.7025 C         1 MOL       0.0000
    809 C257        25.2003     3.2833     7.2367 C         1 MOL       0.0000
    810 C258        11.4685     2.4392     6.1243 C         1 MOL       0.0000
    811 C259        21.8914    -4.6488     8.0976 C         1 MOL       0.0000
    812 C260        14.8318    10.2890     5.2576 C         1 MOL       0.0000
    813 C261        16.1810     9.3453     7.0574 C         1 MOL       0.0000
    814 C262        20.5142    -3.7563     6.2606 C         1 MOL       0.0000
    815 C263        26.5828     2.5094     5.3546 C         1 MOL       0.0000
    816 C264        10.1519     3.2516     8.0110 C         1 MOL       0.0000
    817 C265        24.7648     0.7270     0.1482 C         1 MOL       0.0000
    818 C266        18.2951    12.5186     0.1732 C         1 MOL       0.0000
    819 C267        22.6143    -0.5759    13.1172 C         1 MOL       0.0000
    820 C268         9.2560     0.9665    13.0978 C         1 MOL       0.0000
    821 C269        19.4992     4.5555     5.7080 C         1 MOL       0.0000
    822 C270        14.7431    -2.5389     7.6261 C         1 MOL       0.0000
    823 C271        19.9940    -4.8842    13.2200 C         1 MOL       0.0000
    824 C272        18.2024    11.0851     0.1357 C         1 MOL       0.0000
    825 C273        21.3164    -1.1927    13.1640 C         1 MOL       0.0000
    826 C274        10.6583     1.3809    13.1223 C         1 MOL       0.0000
    827 C275        24.8042     0.0579     1.3779 C         1 MOL       0.0000
    828 C276        13.6574     6.1583    12.0308 C         1 MOL       0.0000
    829 C277        11.9046     7.3219     1.1661 C         1 MOL       0.0000
    830 C278         8.6232     0.7368    11.8693 C         1 MOL       0.0000
    831 C279        23.3089    -0.3076    11.8838 C         1 MOL       0.0000
    832 C280        13.1938     7.8021     1.2153 C         1 MOL       0.0000
    833 C281        20.1467    -7.0795    12.0329 C         1 MOL       0.0000
    834 C282        24.8259    -1.3432     1.4595 C         1 MOL       0.0000
    835 N41         24.8809    -1.9421     2.6976 N         1 MOL       0.0000
    836 N42         22.7299    -0.4905    10.6448 N         1 MOL       0.0000
    837 N43         24.1195     3.9296     7.7680 N         1 MOL       0.0000
    838 N44         22.2224    -4.8070     9.4150 N         1 MOL       0.0000
    839 O161        23.3768     4.2178     5.2009 O         1 MOL       0.0000
    840 O162        12.9530     0.9833     8.0911 O         1 MOL       0.0000
    841 O163        20.2032    -3.1497     9.8128 O         1 MOL       0.0000
    842 O164        16.7505     9.2989     3.5031 O         1 MOL       0.0000
    843 O165        17.5868     7.9120     5.0892 O         1 MOL       0.0000
    844 O166        18.6513    -2.9057     8.1862 O         1 MOL       0.0000
    845 O167        24.9650     3.8935     3.6234 O         1 MOL       0.0000
    846 O168        12.1420     2.3704     9.6891 O         1 MOL       0.0000
    847 O169        22.2924     3.6386     2.6244 O         1 MOL       0.0000
    848 O170        14.6462     1.4972    10.1894 O         1 MOL       0.0000
    849 O171        23.2312     5.9259     3.0743 O         1 MOL       0.0000
    850 O172        12.8940    -0.2275    10.6821 O         1 MOL       0.0000
    851 O173        17.5006    -3.4354    10.7768 O         1 MOL       0.0000
    852 O174        19.2690     8.4600     3.0049 O         1 MOL       0.0000
    853 O175        18.4545    -1.1739    10.3127 O         1 MOL       0.0000
    854 O176        17.5628     6.7029     2.4875 O         1 MOL       0.0000
    855 O177        20.7203     4.3756     5.3537 O         1 MOL       0.0000
    856 O178        14.0854    -1.5039     8.0043 O         1 MOL       0.0000
    857 O179        19.8718    -4.2896    12.0789 O         1 MOL       0.0000
    858 O180        18.1193    10.3836     1.2309 O         1 MOL       0.0000
    859 O181        20.6739    -1.5015    12.0738 O         1 MOL       0.0000
    860 O182        15.8833     8.5479     1.1708 O         1 MOL       0.0000
    861 O183        15.9049    -2.8334     8.0839 O         1 MOL       0.0000
    862 O184        18.7573     5.4764     5.2146 O         1 MOL       0.0000
    863 O185        25.4121     5.5731     1.2170 O         1 MOL       0.0000
    864 O186        11.2578     1.6127    12.0048 O         1 MOL       0.0000
    865 O187        24.6166     2.8188     1.2464 O         1 MOL       0.0000
    866 O188        13.5260     3.3950    12.0861 O         1 MOL       0.0000
    867 O189        20.4842     6.0301     3.1254 O         1 MOL       0.0000
    868 O190        15.7823    -0.9737    10.1065 O         1 MOL       0.0000
    869 O191        22.9383     4.8049     0.1926 O         1 MOL       0.0000
    870 O192        13.7357     0.8410    13.1209 O         1 MOL       0.0000
    871 H249        19.7378     0.9406     8.6511 H         1 MOL       0.0000
    872 H250         9.3853    10.0152     6.2674 H         1 MOL       0.0000
    873 H251        20.4385     9.5710     5.7908 H         1 MOL       0.0000
    874 H252        20.7273     2.4728     6.9306 H         1 MOL       0.0000
    875 H253        16.1023     3.2401     8.6083 H         1 MOL       0.0000
    876 H254        28.1094    -3.2748     7.1846 H         1 MOL       0.0000
    877 H255        17.3992     1.2865     9.4007 H         1 MOL       0.0000
    878 H256        17.1361     4.8366     6.9656 H         1 MOL       0.0000
    879 H257        21.7834     7.8244     4.6441 H         1 MOL       0.0000
    880 H258        24.2433     7.7331     4.9380 H         1 MOL       0.0000
    881 C283        18.9662     3.7143     6.8071 C         1 MOL       0.0000
    882 C284        17.8561     1.9911     8.7067 C         1 MOL       0.0000
    883 C285        22.2809     8.5667     5.2677 C         1 MOL       0.0000
    884 C286        14.0752    -3.5404     6.7632 C         1 MOL       0.0000
    885 C287        17.6847     3.9684     7.3256 C         1 MOL       0.0000
    886 C288        19.1713     1.7889     8.2703 C         1 MOL       0.0000
    887 C289        21.5219     9.5638     5.8934 C         1 MOL       0.0000
    888 C290         8.3087    10.0411     6.1177 C         1 MOL       0.0000
    889 C291        23.6702     8.5211     5.4226 C         1 MOL       0.0000
    890 C292        28.6772    -4.0647     6.7002 C         1 MOL       0.0000
    891 C293        19.7232     2.6409     7.3129 C         1 MOL       0.0000
    892 C294        17.1210     3.0920     8.2537 C         1 MOL       0.0000
    893 N45         21.2210     9.9320     1.3222 N         1 MOL       0.0000
    894 N46         17.9981     1.9189    13.0208 N         1 MOL       0.0000
    895 C295        16.4444     3.4916    13.1849 C         1 MOL       0.0000
    896 C296        17.2605     2.8501    12.3165 C         1 MOL       0.0000
    897 C297        20.2585     2.0323    12.0008 C         1 MOL       0.0000
    898 C298        20.8050    10.6048     2.5822 C         1 MOL       0.0000
    899 C299        22.2151     9.0174     1.2204 C         1 MOL       0.0000
    900 C300        19.1168     1.1313    12.4700 C         1 MOL       0.0000
    901 H259        15.8432     4.3746    13.0578 H         1 MOL       0.0000
    902 H260        17.4773     3.0734    11.2725 H         1 MOL       0.0000
    903 H261        19.9279     2.7270    11.2155 H         1 MOL       0.0000
    904 H262        20.7302    11.6767     2.4235 H         1 MOL       0.0000
    905 H263        20.6931     2.6145    12.8214 H         1 MOL       0.0000
    906 H264        19.8522    10.2609     2.9117 H         1 MOL       0.0000
    907 H265        21.0388     1.3949    11.5629 H         1 MOL       0.0000
    908 H266        18.7053     0.5504    11.6371 H         1 MOL       0.0000
    909 H267        21.5597    10.4256     3.3617 H         1 MOL       0.0000
    910 H268        22.6032     8.3754     2.0020 H         1 MOL       0.0000
    911 H269        24.0473     7.5022     0.1662 H         1 MOL       0.0000
    912 N47         18.0804     6.4888    13.0372 N         1 MOL       0.0000
    913 C301        16.5038     0.0886     1.4709 C         1 MOL       0.0000
    914 C302        25.3937    -5.9058    10.2581 C         1 MOL       0.0000
    915 O193        29.9455    -0.9061     2.7432 O         1 MOL       0.0000
    916 O194        25.4321    11.4388     1.1372 O         1 MOL       0.0000
    917 O195        17.2842     5.3082    10.6756 O         1 MOL       0.0000
    918 O196        19.7196     5.5226     9.5182 O         1 MOL       0.0000
    919 F49         16.3584     1.1840     2.3913 F         1 MOL       0.0000
    920 F50         25.3734    -3.6995    11.8614 F         1 MOL       0.0000
    921 F51         17.7999     0.4805     0.7940 F         1 MOL       0.0000
    922 F52         15.5864    -0.5233     4.2110 F         1 MOL       0.0000
    923 F53         24.8279    -4.7716     9.9469 F         1 MOL       0.0000
    924 F54         18.6262     8.1091     8.4675 F         1 MOL       0.0000
    925 S17         23.6381    12.9729     0.9927 S         1 MOL       0.0000
    926 S18         18.5756     6.0057    10.8135 S         1 MOL       0.0000
    927 N48         19.3311     0.9788     3.5816 N         1 MOL       0.0000
    928 N49         17.6347     1.7578     4.6634 N         1 MOL       0.0000
    929 C303        20.3790     0.7829     2.5610 C         1 MOL       0.0000
    930 C304        18.4195     1.9547     3.5873 C         1 MOL       0.0000
    931 C305        19.1034     0.1023     4.6724 C         1 MOL       0.0000
    932 C306        20.3489    -0.5980     1.9178 C         1 MOL       0.0000
    933 C307        18.0353     0.6038     5.3590 C         1 MOL       0.0000
    934 C308        16.3587     2.4516     4.8543 C         1 MOL       0.0000
    935 H270        21.3330     0.9991     3.0600 H         1 MOL       0.0000
    936 H271        20.2220     1.5866     1.8286 H         1 MOL       0.0000
    937 H272        18.2459     2.6559     2.7985 H         1 MOL       0.0000
    938 H273        21.2926    -0.8140     1.3992 H         1 MOL       0.0000
    939 H274        19.7270    -0.7299     4.8950 H         1 MOL       0.0000
    940 H275        16.3072     2.8905     5.8495 H         1 MOL       0.0000
    941 H276        16.2640     3.2540     4.1133 H         1 MOL       0.0000
    942 H277        20.1663    -1.3765     2.6667 H         1 MOL       0.0000
    943 H278        17.5639     0.3380     6.2885 H         1 MOL       0.0000
    944 H279        19.5294    -0.6880     1.1957 H         1 MOL       0.0000
    945 H280        15.5299     1.7342     4.7031 H         1 MOL       0.0000
    946 N50         15.5811     0.0279     0.5485 N         1 MOL       0.0000
    947 C309        14.4380    -1.0892     3.7133 C         1 MOL       0.0000
    948 C310        25.0609    -6.6686    11.6133 C         1 MOL       0.0000
    949 O197        11.8900    -4.3485    12.9703 O         1 MOL       0.0000
    950 O198        17.5762    -2.1938     3.0045 O         1 MOL       0.0000
    951 O199        12.4630    -6.4255    11.6105 O         1 MOL       0.0000
    952 O200        11.5790    12.5898     0.4793 O         1 MOL       0.0000
    953 F55         13.4714    -1.0718     4.8972 F         1 MOL       0.0000
    954 F56         24.0334    -5.9980    12.0909 F         1 MOL       0.0000
    955 F57         22.6059    11.8247     1.6393 F         1 MOL       0.0000
    956 F58         24.2376    11.6321     3.5522 F         1 MOL       0.0000
    957 F59         26.7722    -5.8452    10.0556 F         1 MOL       0.0000
    958 F60         19.6059     5.0756    11.5798 F         1 MOL       0.0000
    959 S19         11.5359    -5.6457    12.4023 S         1 MOL       0.0000
    960 S20         10.5870    12.7010     1.5151 S         1 MOL       0.0000
    961 Ti41         8.5096    -5.3932    24.4314 Ti        1 MOL       0.0000
    962 Ti42        19.3400    -2.5120    15.0666 Ti        1 MOL       0.0000
    963 Ti43        12.6063    -9.3294    22.6114 Ti        1 MOL       0.0000
    964 Ti44        14.1174    -0.1673    16.8384 Ti        1 MOL       0.0000
    965 Ti45        13.1189     1.5110    14.9340 Ti        1 MOL       0.0000
    966 Ti46        14.4945    -9.5838    24.5648 Ti        1 MOL       0.0000
    967 Ti47         9.4588    -7.1291    22.5399 Ti        1 MOL       0.0000
    968 Ti48        17.3522    -2.2095    16.9140 Ti        1 MOL       0.0000
    969 H281         9.0114    -1.4961    24.2119 H         1 MOL       0.0000
    970 H282        20.1488    -6.4181    15.3873 H         1 MOL       0.0000
    971 H283         4.5497    -6.1499    24.0490 H         1 MOL       0.0000
    972 H284        22.7222    -0.5077    15.2672 H         1 MOL       0.0000
    973 H285        15.4701   -13.6183    24.1789 H         1 MOL       0.0000
    974 H286         9.0603     0.9211    15.2561 H         1 MOL       0.0000
    975 H287         8.9783    -7.1918    26.1559 H         1 MOL       0.0000
    976 H288        17.4645    -2.7547    13.3666 H         1 MOL       0.0000
    977 H289        15.0044   -10.2509    19.0537 H         1 MOL       0.0000
    978 H290        12.3940     1.6697    20.4573 H         1 MOL       0.0000
    979 H291         5.3861    -3.7405    22.1840 H         1 MOL       0.0000
    980 H292        22.0948    -4.5963    17.3726 H         1 MOL       0.0000
    981 H293         7.6872    -5.1879    18.8502 H         1 MOL       0.0000
    982 H294        10.0188     3.3389    17.2872 H         1 MOL       0.0000
    983 H295        13.5111     4.6138    15.7895 H         1 MOL       0.0000
    984 H296        19.9910    -8.4369    16.5898 H         1 MOL       0.0000
    985 H297        16.2101    -0.4872    15.4998 H         1 MOL       0.0000
    986 H298        11.5255    -7.4810    23.9050 H         1 MOL       0.0000
    987 H299        18.7292    -7.6489    22.9545 H         1 MOL       0.0000
    988 H300        17.2481    -8.1180    23.7018 H         1 MOL       0.0000
    989 H301        19.3033    -3.2153    21.8555 H         1 MOL       0.0000
    990 H302        18.7336    -2.8567    20.2370 H         1 MOL       0.0000
    991 H303        18.2404   -12.6038    22.7644 H         1 MOL       0.0000
    992 H304        16.9612   -11.5032    23.2218 H         1 MOL       0.0000
    993 C311        19.9181    -3.2533    17.9301 C         1 MOL       0.0000
    994 C312         7.5490    -5.1319    21.5844 C         1 MOL       0.0000
    995 C313        15.1867   -10.3401    21.6867 C         1 MOL       0.0000
    996 C314        12.1813     1.8032    17.7978 C         1 MOL       0.0000
    997 C315        20.8141    -3.8576    18.9253 C         1 MOL       0.0000
    998 C316         6.6171    -4.5068    20.6073 C         1 MOL       0.0000
    999 C317        16.1270   -10.9545    20.7395 C         1 MOL       0.0000
   1000 C318        11.2915     2.4500    18.7975 C         1 MOL       0.0000
   1001 C319        20.5653    -3.7827    20.3317 C         1 MOL       0.0000
   1002 C320         6.8335    -4.6268    19.2193 C         1 MOL       0.0000
   1003 C321        17.2564   -11.7148    21.1926 C         1 MOL       0.0000
   1004 C322        10.1968     3.2230    18.3526 C         1 MOL       0.0000
   1005 C323        11.5460     2.2792    20.1524 C         1 MOL       0.0000
   1006 C324        15.8792   -10.8223    19.3556 C         1 MOL       0.0000
   1007 C325        21.9478    -4.5566    18.4496 C         1 MOL       0.0000
   1008 C326         5.5170    -3.8144    21.1060 C         1 MOL       0.0000
   1009 C327        20.1298    -6.3390    13.2432 C         1 MOL       0.0000
   1010 C328        13.6601     5.4526    13.2682 C         1 MOL       0.0000
   1011 C329        17.9793    -7.6419    26.2122 C         1 MOL       0.0000
   1012 C330         4.6210    -6.0995    26.1928 C         1 MOL       0.0000
   1013 C331        14.8642    -2.5105    18.8030 C         1 MOL       0.0000
   1014 C332        10.1081    -9.6049    20.7211 C         1 MOL       0.0000
   1015 C333        15.3590   -11.9502    26.3150 C         1 MOL       0.0000
   1016 C334        13.5674     4.0191    13.2307 C         1 MOL       0.0000
   1017 C335        16.6814    -8.2587    26.2590 C         1 MOL       0.0000
   1018 C336         6.0233    -5.6851    26.2173 C         1 MOL       0.0000
   1019 C337        20.1692    -7.0081    14.4729 C         1 MOL       0.0000
   1020 C338         9.0224    -0.9077    25.1258 C         1 MOL       0.0000
   1021 C339         7.2696     0.2559    14.2611 C         1 MOL       0.0000
   1022 C340         3.9882    -6.3292    24.9643 C         1 MOL       0.0000
   1023 C341        18.6739    -7.3736    24.9788 C         1 MOL       0.0000
   1024 C342         8.5588     0.7361    14.3103 C         1 MOL       0.0000
   1025 C343        15.5117   -14.1455    25.1279 C         1 MOL       0.0000
   1026 C344        20.1909    -8.4092    14.5545 C         1 MOL       0.0000
   1027 N51         20.2459    -9.0081    15.7926 N         1 MOL       0.0000
   1028 N52         18.0949    -7.5564    23.7398 N         1 MOL       0.0000
   1029 N53         19.4844    -3.1364    20.8630 N         1 MOL       0.0000
   1030 N54         17.5874   -11.8730    22.5100 N         1 MOL       0.0000
   1031 O201        18.7418    -2.8482    18.2959 O         1 MOL       0.0000
   1032 O202         8.3180    -6.0827    21.1861 O         1 MOL       0.0000
   1033 O203        15.5682   -10.2157    22.9078 O         1 MOL       0.0000
   1034 O204        12.1155     2.2329    16.5982 O         1 MOL       0.0000
   1035 O205        12.9518     0.8460    18.1842 O         1 MOL       0.0000
   1036 O206        14.0163    -9.9717    21.2812 O         1 MOL       0.0000
   1037 O207        20.3300    -3.1725    16.7184 O         1 MOL       0.0000
   1038 O208         7.5070    -4.6956    22.7841 O         1 MOL       0.0000
   1039 O209        17.6574    -3.4274    15.7194 O         1 MOL       0.0000
   1040 O210        10.0112    -5.5688    23.2844 O         1 MOL       0.0000
   1041 O211        18.5962    -1.1401    16.1693 O         1 MOL       0.0000
   1042 O212         8.2590    -7.2935    23.7771 O         1 MOL       0.0000
   1043 O213        12.8655   -10.5014    23.8718 O         1 MOL       0.0000
   1044 O214        14.6340     1.3940    16.0999 O         1 MOL       0.0000
   1045 O215        13.8195    -8.2399    23.4077 O         1 MOL       0.0000
   1046 O216        12.9278    -0.3631    15.5825 O         1 MOL       0.0000
   1047 O217        16.0853    -2.6904    18.4487 O         1 MOL       0.0000
   1048 O218         9.4504    -8.5699    21.0993 O         1 MOL       0.0000
   1049 O219        15.2368   -11.3556    25.1739 O         1 MOL       0.0000
   1050 O220        13.4843     3.3176    14.3259 O         1 MOL       0.0000
   1051 O221        16.0389    -8.5675    25.1688 O         1 MOL       0.0000
   1052 O222        11.2483     1.4819    14.2658 O         1 MOL       0.0000
   1053 O223        11.2699    -9.8994    21.1789 O         1 MOL       0.0000
   1054 O224        14.1223    -1.5896    18.3096 O         1 MOL       0.0000
   1055 O225        20.7771    -1.4929    14.3120 O         1 MOL       0.0000
   1056 O226         6.6228    -5.4533    25.0998 O         1 MOL       0.0000
   1057 O227        19.9816    -4.2472    14.3414 O         1 MOL       0.0000
   1058 O228         8.8910    -3.6709    25.1811 O         1 MOL       0.0000
   1059 O229        15.8492    -1.0359    16.2204 O         1 MOL       0.0000
   1060 O230        11.1473    -8.0397    23.2015 O         1 MOL       0.0000
   1061 O231        18.3033    -2.2611    13.2876 O         1 MOL       0.0000
   1062 O232         9.1007    -6.2250    26.2159 O         1 MOL       0.0000
   1063 H305        15.1028    -6.1254    21.7461 H         1 MOL       0.0000
   1064 H306         4.7503     2.9492    19.3624 H         1 MOL       0.0000
   1065 H307        15.8035     2.5050    18.8858 H         1 MOL       0.0000
   1066 H308        16.0923    -4.5932    20.0256 H         1 MOL       0.0000
   1067 H309        11.4673    -3.8259    21.7033 H         1 MOL       0.0000
   1068 H310        23.4744   -10.3408    20.2796 H         1 MOL       0.0000
   1069 H311        12.7642    -5.7795    22.4957 H         1 MOL       0.0000
   1070 H312        12.5011    -2.2294    20.0606 H         1 MOL       0.0000
   1071 H313        17.1484     0.7584    17.7391 H         1 MOL       0.0000
   1072 H314        19.6083     0.6671    18.0330 H         1 MOL       0.0000
   1073 C345        14.3312    -3.3517    19.9021 C         1 MOL       0.0000
   1074 C346        13.2211    -5.0749    21.8017 C         1 MOL       0.0000
   1075 C347        17.6459     1.5007    18.3627 C         1 MOL       0.0000
   1076 C348         9.4402   -10.6064    19.8582 C         1 MOL       0.0000
   1077 C349        13.0497    -3.0976    20.4206 C         1 MOL       0.0000
   1078 C350        14.5363    -5.2771    21.3653 C         1 MOL       0.0000
   1079 C351        16.8869     2.4978    18.9884 C         1 MOL       0.0000
   1080 C352         3.6737     2.9751    19.2127 C         1 MOL       0.0000
   1081 C353        19.0352     1.4551    18.5176 C         1 MOL       0.0000
   1082 C354        24.0422   -11.1307    19.7952 C         1 MOL       0.0000
   1083 C355        15.0882    -4.4251    20.4079 C         1 MOL       0.0000
   1084 C356        12.4860    -3.9740    21.3487 C         1 MOL       0.0000
   1085 N55         16.5860     2.8660    14.4172 N         1 MOL       0.0000
   1086 N56         13.3631    -5.1471    26.1158 N         1 MOL       0.0000
   1087 C357        11.8094    -3.5744    26.2799 C         1 MOL       0.0000
   1088 C358        12.6255    -4.2159    25.4115 C         1 MOL       0.0000
   1089 C359        15.6235    -5.0337    25.0958 C         1 MOL       0.0000
   1090 C360        16.1700     3.5388    15.6772 C         1 MOL       0.0000
   1091 C361        17.5801     1.9514    14.3154 C         1 MOL       0.0000
   1092 C362        14.4818    -5.9347    25.5650 C         1 MOL       0.0000
   1093 H315        11.2082    -2.6914    26.1528 H         1 MOL       0.0000
   1094 H316        12.8423    -3.9926    24.3675 H         1 MOL       0.0000
   1095 H317        15.2929    -4.3390    24.3105 H         1 MOL       0.0000
   1096 H318        16.0952     4.6107    15.5185 H         1 MOL       0.0000
   1097 H319        16.0581    -4.4515    25.9164 H         1 MOL       0.0000
   1098 H320        15.2172     3.1949    16.0067 H         1 MOL       0.0000
   1099 H321        16.4038    -5.6711    24.6579 H         1 MOL       0.0000
   1100 H322        14.0703    -6.5156    24.7321 H         1 MOL       0.0000
   1101 H323        16.9247     3.3596    16.4567 H         1 MOL       0.0000
   1102 H324        17.9682     1.3094    15.0970 H         1 MOL       0.0000
   1103 H325        19.4123     0.4362    13.2612 H         1 MOL       0.0000
   1104 N57         13.4454    -0.5772    26.1322 N         1 MOL       0.0000
   1105 C363        11.8688    -6.9774    14.5659 C         1 MOL       0.0000
   1106 C364        20.7587   -12.9718    23.3531 C         1 MOL       0.0000
   1107 O233        25.3105    -7.9721    15.8382 O         1 MOL       0.0000
   1108 O234        20.7971     4.3728    14.2322 O         1 MOL       0.0000
   1109 O235        12.6492    -1.7578    23.7706 O         1 MOL       0.0000
   1110 O236        15.0846    -1.5434    22.6132 O         1 MOL       0.0000
   1111 F61         11.7234    -5.8820    15.4863 F         1 MOL       0.0000
   1112 F62         20.7384   -10.7655    24.9564 F         1 MOL       0.0000
   1113 F63         13.1649    -6.5855    13.8890 F         1 MOL       0.0000
   1114 F64         10.9514    -7.5893    17.3060 F         1 MOL       0.0000
   1115 F65         20.1929   -11.8376    23.0419 F         1 MOL       0.0000
   1116 F66         13.9912     1.0431    21.5625 F         1 MOL       0.0000
   1117 S21         19.0031     5.9069    14.0877 S         1 MOL       0.0000
   1118 S22         13.9406    -1.0603    23.9085 S         1 MOL       0.0000
   1119 N58         14.6961    -6.0872    16.6766 N         1 MOL       0.0000
   1120 N59         12.9997    -5.3082    17.7584 N         1 MOL       0.0000
   1121 C365        15.7440    -6.2831    15.6560 C         1 MOL       0.0000
   1122 C366        13.7845    -5.1113    16.6823 C         1 MOL       0.0000
   1123 C367        14.4684    -6.9637    17.7674 C         1 MOL       0.0000
   1124 C368        15.7139    -7.6640    15.0128 C         1 MOL       0.0000
   1125 C369        13.4003    -6.4622    18.4540 C         1 MOL       0.0000
   1126 C370        11.7237    -4.6144    17.9493 C         1 MOL       0.0000
   1127 H326        16.6980    -6.0669    16.1550 H         1 MOL       0.0000
   1128 H327        15.5870    -5.4794    14.9236 H         1 MOL       0.0000
   1129 H328        13.6109    -4.4101    15.8935 H         1 MOL       0.0000
   1130 H329        16.6576    -7.8800    14.4942 H         1 MOL       0.0000
   1131 H330        15.0920    -7.7959    17.9900 H         1 MOL       0.0000
   1132 H331        11.6722    -4.1755    18.9445 H         1 MOL       0.0000
   1133 H332        11.6290    -3.8120    17.2083 H         1 MOL       0.0000
   1134 H333        15.5313    -8.4425    15.7617 H         1 MOL       0.0000
   1135 H334        12.9289    -6.7280    19.3835 H         1 MOL       0.0000
   1136 H335        14.8944    -7.7540    14.2907 H         1 MOL       0.0000
   1137 H336        10.8949    -5.3318    17.7981 H         1 MOL       0.0000
   1138 N60         10.9461    -7.0381    13.6435 N         1 MOL       0.0000
   1139 C371         9.8030    -8.1552    16.8083 C         1 MOL       0.0000
   1140 C372        20.4259   -13.7346    24.7083 C         1 MOL       0.0000
   1141 O237         7.2550   -11.4145    26.0653 O         1 MOL       0.0000
   1142 O238        12.9412    -9.2598    16.0995 O         1 MOL       0.0000
   1143 O239         7.8280   -13.4915    24.7055 O         1 MOL       0.0000
   1144 O240         6.9440     5.5238    13.5743 O         1 MOL       0.0000
   1145 F67          8.8364    -8.1378    17.9922 F         1 MOL       0.0000
   1146 F68         19.3984   -13.0640    25.1859 F         1 MOL       0.0000
   1147 F69         17.9709     4.7587    14.7343 F         1 MOL       0.0000
   1148 F70         19.6026     4.5661    16.6472 F         1 MOL       0.0000
   1149 F71         22.1372   -12.9112    23.1506 F         1 MOL       0.0000
   1150 F72         14.9709    -1.9904    24.6748 F         1 MOL       0.0000
   1151 S23          6.9009   -12.7117    25.4973 S         1 MOL       0.0000
   1152 S24          5.9520     5.6350    14.6101 S         1 MOL       0.0000
   1153 Ti49         6.6276    16.2858    11.2794 Ti        1 MOL       0.0000
   1154 Ti50        17.4580    19.1670     1.9146 Ti        1 MOL       0.0000
   1155 Ti51        10.7242    12.3496     9.4594 Ti        1 MOL       0.0000
   1156 Ti52        12.2354    21.5117     3.6864 Ti        1 MOL       0.0000
   1157 Ti53        11.2369    23.1900     1.7820 Ti        1 MOL       0.0000
   1158 Ti54        12.6125    12.0952    11.4128 Ti        1 MOL       0.0000
   1159 Ti55         7.5768    14.5499     9.3879 Ti        1 MOL       0.0000
   1160 Ti56        15.4702    19.4695     3.7621 Ti        1 MOL       0.0000
   1161 H337         7.1294    20.1828    11.0599 H         1 MOL       0.0000
   1162 H338        18.2668    15.2609     2.2353 H         1 MOL       0.0000
   1163 H339         2.6677    15.5291    10.8970 H         1 MOL       0.0000
   1164 H340        20.8402    21.1713     2.1152 H         1 MOL       0.0000
   1165 H341        13.5881     8.0607    11.0269 H         1 MOL       0.0000
   1166 H342         7.1783    22.6001     2.1040 H         1 MOL       0.0000
   1167 H343         7.0963    14.4872    13.0039 H         1 MOL       0.0000
   1168 H344        15.5825    18.9243     0.2147 H         1 MOL       0.0000
   1169 H345        13.1224    11.4281     5.9017 H         1 MOL       0.0000
   1170 H346        10.5120    23.3487     7.3053 H         1 MOL       0.0000
   1171 H347         3.5041    17.9385     9.0320 H         1 MOL       0.0000
   1172 H348        20.2128    17.0826     4.2206 H         1 MOL       0.0000
   1173 H349         5.8052    16.4911     5.6982 H         1 MOL       0.0000
   1174 H350         8.1368    25.0179     4.1352 H         1 MOL       0.0000
   1175 H351        11.6291    26.2928     2.6375 H         1 MOL       0.0000
   1176 H352        18.1090    13.2421     3.4378 H         1 MOL       0.0000
   1177 H353        14.3281    21.1918     2.3478 H         1 MOL       0.0000
   1178 H354         9.6435    14.1980    10.7530 H         1 MOL       0.0000
   1179 H355        16.8472    14.0301     9.8025 H         1 MOL       0.0000
   1180 H356        15.3661    13.5610    10.5498 H         1 MOL       0.0000
   1181 H357        17.4213    18.4637     8.7035 H         1 MOL       0.0000
   1182 H358        16.8516    18.8223     7.0850 H         1 MOL       0.0000
   1183 H359        16.3584     9.0752     9.6124 H         1 MOL       0.0000
   1184 H360        15.0792    10.1758    10.0698 H         1 MOL       0.0000
   1185 C373        18.0361    18.4257     4.7781 C         1 MOL       0.0000
   1186 C374         5.6670    16.5472     8.4324 C         1 MOL       0.0000
   1187 C375        13.3048    11.3389     8.5347 C         1 MOL       0.0000
   1188 C376        10.2993    23.4822     4.6457 C         1 MOL       0.0000
   1189 C377        18.9321    17.8214     5.7733 C         1 MOL       0.0000
   1190 C378         4.7351    17.1722     7.4553 C         1 MOL       0.0000
   1191 C379        14.2450    10.7245     7.5875 C         1 MOL       0.0000
   1192 C380         9.4095    24.1290     5.6455 C         1 MOL       0.0000
   1193 C381        18.6833    17.8963     7.1797 C         1 MOL       0.0000
   1194 C382         4.9515    17.0522     6.0673 C         1 MOL       0.0000
   1195 C383        15.3744     9.9642     8.0406 C         1 MOL       0.0000
   1196 C384         8.3148    24.9020     5.2006 C         1 MOL       0.0000
   1197 C385         9.6640    23.9582     7.0004 C         1 MOL       0.0000
   1198 C386        13.9972    10.8566     6.2036 C         1 MOL       0.0000
   1199 C387        20.0658    17.1224     5.2976 C         1 MOL       0.0000
   1200 C388         3.6349    17.8646     7.9540 C         1 MOL       0.0000
   1201 C389        18.2478    15.3400     0.0912 C         1 MOL       0.0000
   1202 C390        11.7781    27.1316     0.1162 C         1 MOL       0.0000
   1203 C391        16.0973    14.0371    13.0602 C         1 MOL       0.0000
   1204 C392         2.7390    15.5795    13.0408 C         1 MOL       0.0000
   1205 C393        12.9822    19.1685     5.6510 C         1 MOL       0.0000
   1206 C394         8.2261    12.0742     7.5691 C         1 MOL       0.0000
   1207 C395        13.4770     9.7288    13.1630 C         1 MOL       0.0000
   1208 C396        11.6854    25.6981     0.0787 C         1 MOL       0.0000
   1209 C397        14.7995    13.4203    13.1070 C         1 MOL       0.0000
   1210 C398         4.1413    15.9939    13.0653 C         1 MOL       0.0000
   1211 C399        18.2872    14.6709     1.3209 C         1 MOL       0.0000
   1212 C400         7.1404    20.7713    11.9738 C         1 MOL       0.0000
   1213 C401         5.3876    21.9349     1.1091 C         1 MOL       0.0000
   1214 C402         2.1062    15.3498    11.8123 C         1 MOL       0.0000
   1215 C403        16.7919    14.3054    11.8268 C         1 MOL       0.0000
   1216 C404         6.6768    22.4151     1.1583 C         1 MOL       0.0000
   1217 C405        13.6297     7.5335    11.9759 C         1 MOL       0.0000
   1218 C406        18.3089    13.2698     1.4025 C         1 MOL       0.0000
   1219 N61         18.3639    12.6709     2.6406 N         1 MOL       0.0000
   1220 N62         16.2129    14.1226    10.5878 N         1 MOL       0.0000
   1221 N63         17.6025    18.5426     7.7110 N         1 MOL       0.0000
   1222 N64         15.7054     9.8060     9.3580 N         1 MOL       0.0000
   1223 O241        16.8598    18.8308     5.1439 O         1 MOL       0.0000
   1224 O242         6.4360    15.5963     8.0341 O         1 MOL       0.0000
   1225 O243        13.6862    11.4633     9.7558 O         1 MOL       0.0000
   1226 O244        10.2335    23.9119     3.4461 O         1 MOL       0.0000
   1227 O245        11.0698    22.5250     5.0322 O         1 MOL       0.0000
   1228 O246        12.1343    11.7073     8.1292 O         1 MOL       0.0000
   1229 O247        18.4480    18.5065     3.5664 O         1 MOL       0.0000
   1230 O248         5.6250    16.9834     9.6321 O         1 MOL       0.0000
   1231 O249        15.7754    18.2516     2.5674 O         1 MOL       0.0000
   1232 O250         8.1292    16.1102    10.1324 O         1 MOL       0.0000
   1233 O251        16.7142    20.5389     3.0173 O         1 MOL       0.0000
   1234 O252         6.3770    14.3855    10.6251 O         1 MOL       0.0000
   1235 O253        10.9835    11.1776    10.7198 O         1 MOL       0.0000
   1236 O254        12.7520    23.0730     2.9479 O         1 MOL       0.0000
   1237 O255        11.9375    13.4391    10.2557 O         1 MOL       0.0000
   1238 O256        11.0458    21.3159     2.4305 O         1 MOL       0.0000
   1239 O257        14.2033    18.9886     5.2967 O         1 MOL       0.0000
   1240 O258         7.5684    13.1091     7.9473 O         1 MOL       0.0000
   1241 O259        13.3548    10.3234    12.0219 O         1 MOL       0.0000
   1242 O260        11.6023    24.9966     1.1739 O         1 MOL       0.0000
   1243 O261        14.1569    13.1115    12.0168 O         1 MOL       0.0000
   1244 O262         9.3663    23.1609     1.1138 O         1 MOL       0.0000
   1245 O263         9.3879    11.7796     8.0269 O         1 MOL       0.0000
   1246 O264        12.2403    20.0894     5.1576 O         1 MOL       0.0000
   1247 O265        18.8951    20.1861     1.1600 O         1 MOL       0.0000
   1248 O266         4.7408    16.2257    11.9478 O         1 MOL       0.0000
   1249 O267        18.0995    17.4318     1.1894 O         1 MOL       0.0000
   1250 O268         7.0090    18.0080    12.0291 O         1 MOL       0.0000
   1251 O269        13.9672    20.6431     3.0684 O         1 MOL       0.0000
   1252 O270         9.2653    13.6393    10.0495 O         1 MOL       0.0000
   1253 O271        16.4213    19.4179     0.1356 O         1 MOL       0.0000
   1254 O272         7.2187    15.4540    13.0639 O         1 MOL       0.0000
   1255 H361        13.2208    15.5536     8.5941 H         1 MOL       0.0000
   1256 H362         2.8683    24.6282     6.2104 H         1 MOL       0.0000
   1257 H363        13.9215    24.1840     5.7338 H         1 MOL       0.0000
   1258 H364        14.2103    17.0858     6.8736 H         1 MOL       0.0000
   1259 H365         9.5853    17.8531     8.5513 H         1 MOL       0.0000
   1260 H366        21.5924    11.3382     7.1276 H         1 MOL       0.0000
   1261 H367        10.8822    15.8995     9.3437 H         1 MOL       0.0000
   1262 H368        10.6191    19.4496     6.9086 H         1 MOL       0.0000
   1263 H369        15.2664    22.4374     4.5871 H         1 MOL       0.0000
   1264 H370        17.7263    22.3461     4.8810 H         1 MOL       0.0000
   1265 C407        12.4492    18.3273     6.7501 C         1 MOL       0.0000
   1266 C408        11.3391    16.6041     8.6497 C         1 MOL       0.0000
   1267 C409        15.7639    23.1797     5.2107 C         1 MOL       0.0000
   1268 C410         7.5582    11.0726     6.7062 C         1 MOL       0.0000
   1269 C411        11.1677    18.5814     7.2686 C         1 MOL       0.0000
   1270 C412        12.6543    16.4019     8.2133 C         1 MOL       0.0000
   1271 C413        15.0049    24.1768     5.8364 C         1 MOL       0.0000
   1272 C414         1.7917    24.6541     6.0607 C         1 MOL       0.0000
   1273 C415        17.1532    23.1341     5.3656 C         1 MOL       0.0000
   1274 C416        22.1602    10.5483     6.6432 C         1 MOL       0.0000
   1275 C417        13.2062    17.2539     7.2559 C         1 MOL       0.0000
   1276 C418        10.6040    17.7050     8.1967 C         1 MOL       0.0000
   1277 N65         14.7040    24.5450     1.2652 N         1 MOL       0.0000
   1278 N66         11.4811    16.5319    12.9638 N         1 MOL       0.0000
   1279 C419         9.9274    18.1046    13.1279 C         1 MOL       0.0000
   1280 C420        10.7435    17.4631    12.2595 C         1 MOL       0.0000
   1281 C421        13.7415    16.6453    11.9438 C         1 MOL       0.0000
   1282 C422        14.2880    25.2178     2.5252 C         1 MOL       0.0000
   1283 C423        15.6981    23.6304     1.1634 C         1 MOL       0.0000
   1284 C424        12.5998    15.7443    12.4130 C         1 MOL       0.0000
   1285 H371         9.3262    18.9876    13.0008 H         1 MOL       0.0000
   1286 H372        10.9603    17.6864    11.2155 H         1 MOL       0.0000
   1287 H373        13.4109    17.3400    11.1585 H         1 MOL       0.0000
   1288 H374        14.2132    26.2897     2.3665 H         1 MOL       0.0000
   1289 H375        14.1761    17.2275    12.7644 H         1 MOL       0.0000
   1290 H376        13.3352    24.8739     2.8547 H         1 MOL       0.0000
   1291 H377        14.5218    16.0079    11.5059 H         1 MOL       0.0000
   1292 H378        12.1883    15.1634    11.5801 H         1 MOL       0.0000
   1293 H379        15.0427    25.0386     3.3047 H         1 MOL       0.0000
   1294 H380        16.0862    22.9884     1.9450 H         1 MOL       0.0000
   1295 H381        17.5303    22.1152     0.1092 H         1 MOL       0.0000
   1296 N67         11.5634    21.1018    12.9802 N         1 MOL       0.0000
   1297 C425         9.9868    14.7016     1.4139 C         1 MOL       0.0000
   1298 C426        18.8767     8.7072    10.2011 C         1 MOL       0.0000
   1299 O273        23.4285    13.7069     2.6862 O         1 MOL       0.0000
   1300 O274        18.9151    26.0518     1.0802 O         1 MOL       0.0000
   1301 O275        10.7672    19.9212    10.6186 O         1 MOL       0.0000
   1302 O276        13.2026    20.1356     9.4612 O         1 MOL       0.0000
   1303 F73          9.8414    15.7970     2.3343 F         1 MOL       0.0000
   1304 F74         18.8564    10.9135    11.8044 F         1 MOL       0.0000
   1305 F75         11.2829    15.0935     0.7370 F         1 MOL       0.0000
   1306 F76          9.0694    14.0897     4.1540 F         1 MOL       0.0000
   1307 F77         18.3109     9.8414     9.8899 F         1 MOL       0.0000
   1308 F78         12.1092    22.7221     8.4105 F         1 MOL       0.0000
   1309 S25         17.1211    27.5859     0.9357 S         1 MOL       0.0000
   1310 S26         12.0586    20.6187    10.7565 S         1 MOL       0.0000
   1311 N68         12.8141    15.5918     3.5246 N         1 MOL       0.0000
   1312 N69         11.1177    16.3708     4.6064 N         1 MOL       0.0000
   1313 C427        13.8620    15.3959     2.5040 C         1 MOL       0.0000
   1314 C428        11.9025    16.5677     3.5303 C         1 MOL       0.0000
   1315 C429        12.5864    14.7153     4.6154 C         1 MOL       0.0000
   1316 C430        13.8319    14.0150     1.8608 C         1 MOL       0.0000
   1317 C431        11.5183    15.2168     5.3020 C         1 MOL       0.0000
   1318 C432         9.8417    17.0646     4.7973 C         1 MOL       0.0000
   1319 H382        14.8160    15.6121     3.0030 H         1 MOL       0.0000
   1320 H383        13.7050    16.1996     1.7716 H         1 MOL       0.0000
   1321 H384        11.7289    17.2689     2.7415 H         1 MOL       0.0000
   1322 H385        14.7756    13.7990     1.3422 H         1 MOL       0.0000
   1323 H386        13.2100    13.8831     4.8380 H         1 MOL       0.0000
   1324 H387         9.7902    17.5035     5.7925 H         1 MOL       0.0000
   1325 H388         9.7470    17.8670     4.0563 H         1 MOL       0.0000
   1326 H389        13.6493    13.2365     2.6097 H         1 MOL       0.0000
   1327 H390        11.0469    14.9510     6.2315 H         1 MOL       0.0000
   1328 H391        13.0124    13.9250     1.1387 H         1 MOL       0.0000
   1329 H392         9.0129    16.3472     4.6461 H         1 MOL       0.0000
   1330 N70          9.0641    14.6409     0.4915 N         1 MOL       0.0000
   1331 C433         7.9210    13.5238     3.6563 C         1 MOL       0.0000
   1332 C434        18.5439     7.9444    11.5563 C         1 MOL       0.0000
   1333 O277         5.3730    10.2645    12.9133 O         1 MOL       0.0000
   1334 O278        11.0592    12.4192     2.9475 O         1 MOL       0.0000
   1335 O279         5.9460     8.1875    11.5535 O         1 MOL       0.0000
   1336 O280         5.0620    27.2028     0.4223 O         1 MOL       0.0000
   1337 F79          6.9544    13.5412     4.8402 F         1 MOL       0.0000
   1338 F80         17.5164     8.6150    12.0339 F         1 MOL       0.0000
   1339 F81         16.0889    26.4377     1.5823 F         1 MOL       0.0000
   1340 F82         17.7206    26.2451     3.4952 F         1 MOL       0.0000
   1341 F83         20.2552     8.7678     9.9986 F         1 MOL       0.0000
   1342 F84         13.0889    19.6886    11.5228 F         1 MOL       0.0000
   1343 S27          5.0189     8.9673    12.3453 S         1 MOL       0.0000
   1344 S28          4.0700    27.3140     1.4581 S         1 MOL       0.0000
   1345 Ti57         1.9926     9.2198    24.3744 Ti        1 MOL       0.0000
   1346 Ti58        12.8230    12.1010    15.0096 Ti        1 MOL       0.0000
   1347 Ti59         6.0892     5.2836    22.5544 Ti        1 MOL       0.0000
   1348 Ti60         7.6004    14.4457    16.7814 Ti        1 MOL       0.0000
   1349 Ti61         6.6019    16.1240    14.8770 Ti        1 MOL       0.0000
   1350 Ti62         7.9775     5.0292    24.5078 Ti        1 MOL       0.0000
   1351 Ti63         2.9418     7.4839    22.4829 Ti        1 MOL       0.0000
   1352 Ti64        10.8352    12.4035    16.8571 Ti        1 MOL       0.0000
   1353 H393         2.4944    13.1168    24.1549 H         1 MOL       0.0000
   1354 H394        13.6318     8.1949    15.3303 H         1 MOL       0.0000
   1355 H395        -1.9673     8.4631    23.9920 H         1 MOL       0.0000
   1356 H396        16.2052    14.1053    15.2102 H         1 MOL       0.0000
   1357 H397         8.9531     0.9947    24.1219 H         1 MOL       0.0000
   1358 H398         2.5433    15.5341    15.1991 H         1 MOL       0.0000
   1359 H399         2.4613     7.4212    26.0989 H         1 MOL       0.0000
   1360 H400        10.9475    11.8583    13.3096 H         1 MOL       0.0000
   1361 H401         8.4874     4.3621    18.9967 H         1 MOL       0.0000
   1362 H402         5.8770    16.2827    20.4003 H         1 MOL       0.0000
   1363 H403        -1.1309    10.8725    22.1270 H         1 MOL       0.0000
   1364 H404        15.5778    10.0166    17.3156 H         1 MOL       0.0000
   1365 H405         1.1702     9.4251    18.7932 H         1 MOL       0.0000
   1366 H406         3.5018    17.9519    17.2302 H         1 MOL       0.0000
   1367 H407         6.9941    19.2268    15.7325 H         1 MOL       0.0000
   1368 H408        13.4740     6.1761    16.5328 H         1 MOL       0.0000
   1369 H409         9.6931    14.1258    15.4428 H         1 MOL       0.0000
   1370 H410         5.0085     7.1320    23.8480 H         1 MOL       0.0000
   1371 H411        12.2122     6.9641    22.8975 H         1 MOL       0.0000
   1372 H412        10.7311     6.4950    23.6448 H         1 MOL       0.0000
   1373 H413        12.7863    11.3977    21.7985 H         1 MOL       0.0000
   1374 H414        12.2166    11.7563    20.1800 H         1 MOL       0.0000
   1375 H415        11.7234     2.0092    22.7074 H         1 MOL       0.0000
   1376 H416        10.4442     3.1098    23.1648 H         1 MOL       0.0000
   1377 C435        13.4011    11.3597    17.8731 C         1 MOL       0.0000
   1378 C436         1.0320     9.4811    21.5274 C         1 MOL       0.0000
   1379 C437         8.6698     4.2729    21.6297 C         1 MOL       0.0000
   1380 C438         5.6643    16.4162    17.7407 C         1 MOL       0.0000
   1381 C439        14.2971    10.7554    18.8683 C         1 MOL       0.0000
   1382 C440         0.1001    10.1062    20.5503 C         1 MOL       0.0000
   1383 C441         9.6100     3.6585    20.6825 C         1 MOL       0.0000
   1384 C442         4.7745    17.0630    18.7405 C         1 MOL       0.0000
   1385 C443        14.0483    10.8303    20.2747 C         1 MOL       0.0000
   1386 C444         0.3165     9.9862    19.1623 C         1 MOL       0.0000
   1387 C445        10.7394     2.8982    21.1356 C         1 MOL       0.0000
   1388 C446         3.6798    17.8360    18.2956 C         1 MOL       0.0000
   1389 C447         5.0290    16.8923    20.0954 C         1 MOL       0.0000
   1390 C448         9.3622     3.7906    19.2986 C         1 MOL       0.0000
   1391 C449        15.4308    10.0564    18.3926 C         1 MOL       0.0000
   1392 C450        -1.0001    10.7986    21.0490 C         1 MOL       0.0000
   1393 C451        13.6128     8.2740    13.1862 C         1 MOL       0.0000
   1394 C452         7.1431    20.0656    13.2112 C         1 MOL       0.0000
   1395 C453        11.4623     6.9711    26.1552 C         1 MOL       0.0000
   1396 C454        -1.8960     8.5135    26.1358 C         1 MOL       0.0000
   1397 C455         8.3472    12.1025    18.7460 C         1 MOL       0.0000
   1398 C456         3.5911     5.0082    20.6641 C         1 MOL       0.0000
   1399 C457         8.8420     2.6628    26.2580 C         1 MOL       0.0000
   1400 C458         7.0504    18.6321    13.1737 C         1 MOL       0.0000
   1401 C459        10.1645     6.3543    26.2020 C         1 MOL       0.0000
   1402 C460        -0.4937     8.9279    26.1603 C         1 MOL       0.0000
   1403 C461        13.6522     7.6049    14.4159 C         1 MOL       0.0000
   1404 C462         2.5054    13.7053    25.0688 C         1 MOL       0.0000
   1405 C463         0.7526    14.8689    14.2041 C         1 MOL       0.0000
   1406 C464        -2.5288     8.2838    24.9073 C         1 MOL       0.0000
   1407 C465        12.1569     7.2394    24.9218 C         1 MOL       0.0000
   1408 C466         2.0418    15.3491    14.2533 C         1 MOL       0.0000
   1409 C467         8.9947     0.4675    25.0709 C         1 MOL       0.0000
   1410 C468        13.6739     6.2038    14.4975 C         1 MOL       0.0000
   1411 N71         13.7289     5.6049    15.7356 N         1 MOL       0.0000
   1412 N72         11.5779     7.0566    23.6828 N         1 MOL       0.0000
   1413 N73         12.9675    11.4766    20.8060 N         1 MOL       0.0000
   1414 N74         11.0704     2.7400    22.4530 N         1 MOL       0.0000
   1415 O281        12.2248    11.7648    18.2389 O         1 MOL       0.0000
   1416 O282         1.8010     8.5303    21.1291 O         1 MOL       0.0000
   1417 O283         9.0512     4.3973    22.8508 O         1 MOL       0.0000
   1418 O284         5.5985    16.8459    16.5412 O         1 MOL       0.0000
   1419 O285         6.4348    15.4590    18.1272 O         1 MOL       0.0000
   1420 O286         7.4993     4.6413    21.2242 O         1 MOL       0.0000
   1421 O287        13.8130    11.4405    16.6614 O         1 MOL       0.0000
   1422 O288         0.9900     9.9174    22.7271 O         1 MOL       0.0000
   1423 O289        11.1404    11.1856    15.6624 O         1 MOL       0.0000
   1424 O290         3.4942     9.0442    23.2274 O         1 MOL       0.0000
   1425 O291        12.0792    13.4729    16.1123 O         1 MOL       0.0000
   1426 O292         1.7420     7.3195    23.7201 O         1 MOL       0.0000
   1427 O293         6.3486     4.1116    23.8148 O         1 MOL       0.0000
   1428 O294         8.1170    16.0070    16.0429 O         1 MOL       0.0000
   1429 O295         7.3025     6.3731    23.3507 O         1 MOL       0.0000
   1430 O296         6.4108    14.2499    15.5255 O         1 MOL       0.0000
   1431 O297         9.5683    11.9226    18.3917 O         1 MOL       0.0000
   1432 O298         2.9334     6.0431    21.0423 O         1 MOL       0.0000
   1433 O299         8.7198     3.2574    25.1169 O         1 MOL       0.0000
   1434 O300         6.9673    17.9306    14.2689 O         1 MOL       0.0000
   1435 O301         9.5219     6.0455    25.1118 O         1 MOL       0.0000
   1436 O302         4.7313    16.0949    14.2088 O         1 MOL       0.0000
   1437 O303         4.7529     4.7136    21.1219 O         1 MOL       0.0000
   1438 O304         7.6053    13.0234    18.2526 O         1 MOL       0.0000
   1439 O305        14.2601    13.1201    14.2550 O         1 MOL       0.0000
   1440 O306         0.1058     9.1597    25.0428 O         1 MOL       0.0000
   1441 O307        13.4645    10.3658    14.2844 O         1 MOL       0.0000
   1442 O308         2.3740    10.9420    25.1241 O         1 MOL       0.0000
   1443 O309         9.3322    13.5771    16.1634 O         1 MOL       0.0000
   1444 O310         4.6303     6.5733    23.1445 O         1 MOL       0.0000
   1445 O311        11.7863    12.3519    13.2306 O         1 MOL       0.0000
   1446 O312         2.5837     8.3880    26.1589 O         1 MOL       0.0000
   1447 H417         8.5858     8.4876    21.6891 H         1 MOL       0.0000
   1448 H418        -1.7667    17.5622    19.3054 H         1 MOL       0.0000
   1449 H419         9.2865    17.1180    18.8288 H         1 MOL       0.0000
   1450 H420         9.5753    10.0198    19.9686 H         1 MOL       0.0000
   1451 H421         4.9503    10.7871    21.6463 H         1 MOL       0.0000
   1452 H422        16.9574     4.2722    20.2226 H         1 MOL       0.0000
   1453 H423         6.2472     8.8335    22.4387 H         1 MOL       0.0000
   1454 H424         5.9841    12.3836    20.0036 H         1 MOL       0.0000
   1455 H425        10.6314    15.3714    17.6821 H         1 MOL       0.0000
   1456 H426        13.0913    15.2801    17.9760 H         1 MOL       0.0000
   1457 C469         7.8142    11.2613    19.8451 C         1 MOL       0.0000
   1458 C470         6.7041     9.5381    21.7447 C         1 MOL       0.0000
   1459 C471        11.1289    16.1137    18.3057 C         1 MOL       0.0000
   1460 C472         2.9232     4.0066    19.8012 C         1 MOL       0.0000
   1461 C473         6.5327    11.5154    20.3636 C         1 MOL       0.0000
   1462 C474         8.0193     9.3359    21.3083 C         1 MOL       0.0000
   1463 C475        10.3699    17.1108    18.9314 C         1 MOL       0.0000
   1464 C476        -2.8433    17.5881    19.1557 C         1 MOL       0.0000
   1465 C477        12.5182    16.0681    18.4606 C         1 MOL       0.0000
   1466 C478        17.5252     3.4823    19.7382 C         1 MOL       0.0000
   1467 C479         8.5712    10.1879    20.3509 C         1 MOL       0.0000
   1468 C480         5.9690    10.6390    21.2917 C         1 MOL       0.0000
   1469 N75         10.0690    17.4790    14.3602 N         1 MOL       0.0000
   1470 N76          6.8461     9.4659    26.0588 N         1 MOL       0.0000
   1471 C481         5.2924    11.0386    26.2229 C         1 MOL       0.0000
   1472 C482         6.1085    10.3971    25.3545 C         1 MOL       0.0000
   1473 C483         9.1065     9.5793    25.0388 C         1 MOL       0.0000
   1474 C484         9.6530    18.1518    15.6202 C         1 MOL       0.0000
   1475 C485        11.0631    16.5644    14.2584 C         1 MOL       0.0000
   1476 C486         7.9648     8.6783    25.5080 C         1 MOL       0.0000
   1477 H427         4.6912    11.9216    26.0958 H         1 MOL       0.0000
   1478 H428         6.3253    10.6204    24.3105 H         1 MOL       0.0000
   1479 H429         8.7759    10.2740    24.2535 H         1 MOL       0.0000
   1480 H430         9.5782    19.2237    15.4615 H         1 MOL       0.0000
   1481 H431         9.5411    10.1615    25.8594 H         1 MOL       0.0000
   1482 H432         8.7002    17.8079    15.9497 H         1 MOL       0.0000
   1483 H433         9.8868     8.9419    24.6009 H         1 MOL       0.0000
   1484 H434         7.5533     8.0974    24.6751 H         1 MOL       0.0000
   1485 H435        10.4077    17.9726    16.3997 H         1 MOL       0.0000
   1486 H436        11.4512    15.9224    15.0400 H         1 MOL       0.0000
   1487 H437        12.8953    15.0492    13.2042 H         1 MOL       0.0000
   1488 N77          6.9284    14.0358    26.0752 N         1 MOL       0.0000
   1489 C487         5.3518     7.6356    14.5089 C         1 MOL       0.0000
   1490 C488        14.2417     1.6412    23.2961 C         1 MOL       0.0000
   1491 O313        18.7935     6.6409    15.7812 O         1 MOL       0.0000
   1492 O314        14.2801    18.9858    14.1752 O         1 MOL       0.0000
   1493 O315         6.1322    12.8552    23.7136 O         1 MOL       0.0000
   1494 O316         8.5676    13.0696    22.5562 O         1 MOL       0.0000
   1495 F85          5.2064     8.7310    15.4293 F         1 MOL       0.0000
   1496 F86         14.2214     3.8475    24.8994 F         1 MOL       0.0000
   1497 F87          6.6479     8.0275    13.8320 F         1 MOL       0.0000
   1498 F88          4.4344     7.0237    17.2490 F         1 MOL       0.0000
   1499 F89         13.6759     2.7754    22.9849 F         1 MOL       0.0000
   1500 F90          7.4742    15.6561    21.5055 F         1 MOL       0.0000
   1501 S29         12.4861    20.5199    14.0307 S         1 MOL       0.0000
   1502 S30          7.4236    13.5527    23.8515 S         1 MOL       0.0000
   1503 N78          8.1791     8.5258    16.6196 N         1 MOL       0.0000
   1504 N79          6.4827     9.3048    17.7014 N         1 MOL       0.0000
   1505 C489         9.2270     8.3299    15.5990 C         1 MOL       0.0000
   1506 C490         7.2675     9.5017    16.6253 C         1 MOL       0.0000
   1507 C491         7.9514     7.6493    17.7104 C         1 MOL       0.0000
   1508 C492         9.1969     6.9490    14.9558 C         1 MOL       0.0000
   1509 C493         6.8833     8.1508    18.3970 C         1 MOL       0.0000
   1510 C494         5.2067     9.9986    17.8923 C         1 MOL       0.0000
   1511 H438        10.1810     8.5461    16.0980 H         1 MOL       0.0000
   1512 H439         9.0700     9.1336    14.8666 H         1 MOL       0.0000
   1513 H440         7.0939    10.2029    15.8365 H         1 MOL       0.0000
   1514 H441        10.1406     6.7330    14.4372 H         1 MOL       0.0000
   1515 H442         8.5750     6.8171    17.9330 H         1 MOL       0.0000
   1516 H443         5.1552    10.4375    18.8875 H         1 MOL       0.0000
   1517 H444         5.1120    10.8010    17.1513 H         1 MOL       0.0000
   1518 H445         9.0143     6.1705    15.7047 H         1 MOL       0.0000
   1519 H446         6.4119     7.8850    19.3265 H         1 MOL       0.0000
   1520 H447         8.3774     6.8590    14.2337 H         1 MOL       0.0000
   1521 H448         4.3779     9.2812    17.7411 H         1 MOL       0.0000
   1522 N80          4.4291     7.5749    13.5865 N         1 MOL       0.0000
   1523 C495         3.2860     6.4578    16.7513 C         1 MOL       0.0000
   1524 C496        13.9089     0.8784    24.6513 C         1 MOL       0.0000
   1525 O317         0.7380     3.1985    26.0083 O         1 MOL       0.0000
   1526 O318         6.4242     5.3532    16.0425 O         1 MOL       0.0000
   1527 O319         1.3110     1.1215    24.6485 O         1 MOL       0.0000
   1528 O320         0.4270    20.1368    13.5173 O         1 MOL       0.0000
   1529 F91          2.3194     6.4752    17.9352 F         1 MOL       0.0000
   1530 F92         12.8814     1.5490    25.1289 F         1 MOL       0.0000
   1531 F93         11.4539    19.3717    14.6773 F         1 MOL       0.0000
   1532 F94         13.0856    19.1791    16.5902 F         1 MOL       0.0000
   1533 F95         15.6202     1.7018    23.0936 F         1 MOL       0.0000
   1534 F96          8.4539    12.6226    24.6178 F         1 MOL       0.0000
   1535 S31          0.3839     1.9013    25.4403 S         1 MOL       0.0000
   1536 S32         -0.5650    20.2480    14.5531 S         1 MOL       0.0000
@<TRIPOS>BOND
     1     1    78 1
     2     1    96 1
     3     7    88 1
     4     7   100 1
     5     1     7 1
     6     1    80 1
     7     1    82 1
     8     7    72 1
     9     7    80 1
    10     7    82 1
    11     1   102 1
    12     1   197 1
    13     1    98 1
    14     2     8 1
    15     2    79 1
    16     2    81 1
    17     2   101 1
    18     2    97 1
    19     2    77 1
    20     2    95 1
    21     3    93 1
    22     3   100 1
    23     3    76 1
    24     3    83 1
    25     3    85 1
    26     3     6 1
    27     4    86 1
    28     4    94 1
    29     4     5 1
    30     4    84 1
    31     4    75 1
    32     4    99 1
    33     5    92 1
    34     5    86 1
    35     5    74 1
    36     5    84 1
    37     5    90 1
    38     6    83 1
    39     6    85 1
    40     6   194 1
    41     6   293 1
    42   194   293 1
    43   208   293 1
    44   194   200 1
    45   194   271 1
    46   194   273 1
    47     6    73 1
    48     6    89 1
    49     6    91 1
    50   194   287 1
    51   194   289 1
    52   194   269 1
    53     8    79 1
    54     8    81 1
    55     8    99 1
    56    16   101 1
    57    25    99 1
    58     8    71 1
    59     8    87 1
    60     9    60 1
    61    59    66 1
    62    10    59 1
    63    49    59 1
    64    34    38 1
    65    34    78 1
    66    11    62 1
    67    34    72 1
    68    12   829 1
    69   829   832 1
    70    31    70 1
    71    32    70 1
    72    43    70 1
    73    13    65 1
    74    14    64 1
    75   197   284 1
    76   197   266 1
    77    15   102 1
    78   102   197 1
    79   197   276 1
    80   197   278 1
    81   197   282 1
    82    17    46 1
    83    36    40 1
    84    45   427 1
    85    36    74 1
    86    18    45 1
    87    36    75 1
    88    19    48 1
    89    20    47 1
    90    47   810 1
    91    21    42 1
    92   154   179 1
    93    22    44 1
    94    40    44 1
    95    44   430 1
    96    40    45 1
    97    56    90 1
    98    23   451 1
    99    50    56 1
   100    50   450 1
   101   408   451 1
   102   450   451 1
   103    24    67 1
   104    66    67 1
   105    26   100 1
   106   118   123 1
   107   103   118 1
   108   109   114 1
   109   114   118 1
   110   114   124 1
   111    35    76 1
   112    39    43 1
   113    39    46 1
   114    35    39 1
   115    35    73 1
   116    27    68 1
   117    28    68 1
   118    29    69 1
   119    30    69 1
   120    33    71 1
   121    37    47 1
   122    41   816 1
   123    33    77 1
   124    33    37 1
   125    37    41 1
   126    41    69 1
   127    38    42 1
   128    38    48 1
   129    51    57 1
   130    57    91 1
   131    57   287 1
   132    51    63 1
   133    51  1021 1
   134    52    58 1
   135    52    62 1
   136    52   256 1
   137    58    96 1
   138    58   284 1
   139   113   123 1
   140   117   124 1
   141    53    94 1
   142    53   113 1
   143   110   117 1
   144   113   117 1
   145    53    87 1
   146    54   116 1
   147    54    88 1
   148    54    93 1
   149   251   258 1
   150    55   241 1
   151    65   241 1
   152   241   251 1
   153    55    89 1
   154    55   289 1
   155    60   242 1
   156    98   248 1
   157   242   248 1
   158   242   642 1
   159   248   282 1
   160   642   643 1
   161    60   449 1
   162    61    64 1
   163   129   132 1
   164    63    68 1
   165   129   135 1
   166   129   137 1
   167   129   139 1
   168    63   830 1
   169  1021  1024 1
   170   104   120 1
   171   105   119 1
   172   111   115 1
   173   115   119 1
   174   119   506 1
   175   115   121 1
   176   506  1268 1
   177   106   123 1
   178   107   124 1
   179   149   158 1
   180   150   158 1
   181   158   190 1
   182   158   564 1
   183   108   122 1
   184   122   884 1
   185   112   121 1
   186   121   888 1
   187   872   888 1
   188   888  1268 1
   189   120   500 1
   190   166   177 1
   191   163   171 1
   192   160   162 1
   193   160   165 1
   194   160   166 1
   195   163   165 1
   196   165   175 1
   197   166   172 1
   198   166   173 1
   199   125   130 1
   200   125   131 1
   201   130   138 1
   202   130   141 1
   203   131   142 1
   204   130   136 1
   205   128   134 1
   206   126   128 1
   207   126   132 1
   208   126   323 1
   209   132   140 1
   210   132   335 1
   211   317   323 1
   212   323   334 1
   213   317   322 1
   214   127   133 1
   215   127   128 1
   216   127   317 1
   217   144   349 1
   218   349   379 1
   219   349   723 1
   220   349  1522 1
   221   531  1331 1
   222   145   178 1
   223   145   151 1
   224   145   153 1
   225   159   162 1
   226   162   169 1
   227   159   163 1
   228   159   161 1
   229   146   155 1
   230   146   189 1
   231   146   180 1
   232   147   947 1
   233   947   953 1
   234   157   187 1
   235   157   531 1
   236  1331  1337 1
   237   148   960 1
   238   157  1330 1
   239   188  1331 1
   240   960  1297 1
   241   960  1334 1
   242  1297  1330 1
   243  1297  1303 1
   244  1297  1305 1
   245   415   454 1
   246   530   539 1
   247   530   564 1
   248   530   573 1
   249   161   164 1
   250   161   167 1
   251   161   168 1
   252   164   176 1
   253   164   170 1
   254   164   174 1
   255   179   185 1
   256   180   186 1
   257   181   191 1
   258   191   370 1
   259   337   370 1
   260   337   343 1
   261   337   345 1
   262   183   191 1
   263   356   366 1
   264   356   368 1
   265   356   362 1
   266   184   192 1
   267   192   566 1
   268   192   529 1
   269   193   270 1
   270   193   274 1
   271   193   288 1
   272   193   199 1
   273   193   272 1
   274   193   294 1
   275   207   294 1
   276   218   292 1
   277   193   290 1
   278   195   285 1
   279   195   292 1
   280   195   268 1
   281   195   198 1
   282   195   275 1
   283   195   277 1
   284   198   265 1
   285   198   275 1
   286   198   277 1
   287   198   281 1
   288   198   283 1
   289   196   286 1
   290   196   291 1
   291   196   197 1
   292   196   267 1
   293   196   276 1
   294   196   278 1
   295   199   264 1
   296   199   274 1
   297   199   280 1
   298   199   272 1
   299   199   292 1
   300   200   291 1
   301   200   263 1
   302   200   271 1
   303   200   273 1
   304   200   279 1
   305   201   252 1
   306   319   325 1
   307   252   641 1
   308   319   320 1
   309   202   251 1
   310   212   239 1
   311   239  1002 1
   312   203   254 1
   313   244   254 1
   314   244   250 1
   315   204  1021 1
   316   205   257 1
   317   247   281 1
   318   206   256 1
   319   228   232 1
   320   228   266 1
   321   232   237 1
   322   232   236 1
   323   228   267 1
   324   209   238 1
   325   227   268 1
   326   227   265 1
   327   227   231 1
   328   210   237 1
   329   297   311 1
   330   211   240 1
   331   213   234 1
   332   226   230 1
   333   226   264 1
   334   230   234 1
   335   226   270 1
   336   230   240 1
   337   214   236 1
   338   236   622 1
   339   215   643 1
   340   600   643 1
   341   216   259 1
   342   217   291 1
   343   303   307 1
   344   304   313 1
   345   307   313 1
   346   307   311 1
   347   313  1080 1
   348   243   249 1
   349   219   260 1
   350   243   255 1
   351   255   260 1
   352   255  1022 1
   353   224   262 1
   354   249   283 1
   355   220   260 1
   356   221   261 1
   357   222   261 1
   358   223   262 1
   359   225   263 1
   360   225   269 1
   361   225   229 1
   362   233   261 1
   363   229   239 1
   364   233  1008 1
   365   979  1008 1
   366   229   233 1
   367   231   238 1
   368   235   262 1
   369   231   235 1
   370   237   619 1
   371   619   646 1
   372   245   286 1
   373   245   305 1
   374   245   279 1
   375   246   280 1
   376   246   285 1
   377   246   308 1
   378   250   288 1
   379   253   256 1
   380   258   259 1
   381   295   310 1
   382   301   306 1
   383   306   310 1
   384   310   315 1
   385   306   316 1
   386   296   312 1
   387   298   315 1
   388   299   316 1
   389   300   314 1
   390   305   315 1
   391   302   309 1
   392   305   309 1
   393   309   316 1
   394   311   698 1
   395  1080  1460 1
   396   312   692 1
   397   314  1076 1
   398  1014  1048 1
   399  1014  1076 1
   400  1014  1053 1
   401   318   324 1
   402   321   324 1
   403   321   327 1
   404   324   332 1
   405   318   320 1
   406   321   329 1
   407   321   331 1
   408   320   326 1
   409   341   350 1
   410   342   350 1
   411   350   382 1
   412   350   756 1
   413   322   330 1
   414   322   328 1
   415   322   333 1
   416   380  1523 1
   417   723  1523 1
   418  1523  1529 1
   419   372   378 1
   420   338   347 1
   421   338   372 1
   422   338   381 1
   423  1141  1151 1
   424   339  1139 1
   425   340  1152 1
   426  1144  1152 1
   427  1152  1526 1
   428  1152  1489 1
   429   346   371 1
   430   358   369 1
   431   358   365 1
   432   358   364 1
   433   352   358 1
   434   353   356 1
   435   353   360 1
   436   351   353 1
   437   351   354 1
   438   351   355 1
   439   352   354 1
   440   352   357 1
   441   354   361 1
   442   355   357 1
   443   355   363 1
   444   357   367 1
   445   353   359 1
   446   371   377 1
   447   373   383 1
   448   375   383 1
   449   376   384 1
   450   384   758 1
   451   384   721 1
   452   418   422 1
   453   385   480 1
   454   385   466 1
   455   391   466 1
   456   391   472 1
   457   385   391 1
   458   385   462 1
   459   385   464 1
   460   391   456 1
   461   391   464 1
   462   418   456 1
   463   418   462 1
   464   385   482 1
   465   385   486 1
   466   385   581 1
   467   391   484 1
   468   386   392 1
   469   386   463 1
   470   386   481 1
   471   386   461 1
   472   386   465 1
   473   386   479 1
   474   386   485 1
   475   387   460 1
   476   387   467 1
   477   387   469 1
   478   387   477 1
   479   387   484 1
   480   410   484 1
   481   387   390 1
   482   388   470 1
   483   388   478 1
   484   388   389 1
   485   388   459 1
   486   388   483 1
   487   388   468 1
   488   389   470 1
   489   389   458 1
   490   389   474 1
   491   389   476 1
   492   389   468 1
   493   390   467 1
   494   390   469 1
   495   390   677 1
   496   578   677 1
   497   578   584 1
   498   578   655 1
   499   578   657 1
   500   390   473 1
   501   578   673 1
   502   390   457 1
   503   390   475 1
   504   390   578 1
   505   441   475 1
   506   441   671 1
   507   578   671 1
   508   578   653 1
   509   392   463 1
   510   392   483 1
   511   409   483 1
   512   392   471 1
   513   392   465 1
   514   400   485 1
   515   392   455 1
   516   393   444 1
   517   443   450 1
   518   394   443 1
   519   433   443 1
   520   403   432 1
   521   395   446 1
   522   396  1213 1
   523  1213  1216 1
   524   416   454 1
   525   427   454 1
   526   397   449 1
   527   398   448 1
   528   581   668 1
   529   581   662 1
   530   399   486 1
   531   486   581 1
   532   581   666 1
   533   581   650 1
   534   581   660 1
   535   482   632 1
   536   423   427 1
   537   401   430 1
   538   423   430 1
   539   424   428 1
   540   420   458 1
   541   402   429 1
   542   420   424 1
   543   420   459 1
   544   424   429 1
   545  1190  1200 1
   546   404   431 1
   547   431  1194 1
   548  1173  1194 1
   549  1190  1194 1
   550   405   426 1
   551   406   428 1
   552   434   440 1
   553   411   452 1
   554   419   460 1
   555   419   423 1
   556   419   457 1
   557   412   452 1
   558   413   453 1
   559   417   421 1
   560   417   461 1
   561   417   455 1
   562   414   453 1
   563   421   425 1
   564   425  1200 1
   565   425   453 1
   566   421   431 1
   567   422   432 1
   568   422   426 1
   569   435   441 1
   570   447   452 1
   571   435   447 1
   572   435  1405 1
   573   447  1214 1
   574  1405  1408 1
   575   436   442 1
   576   436   446 1
   577   436   640 1
   578   442   480 1
   579   442   668 1
   580   437   478 1
   581   497   501 1
   582   497   507 1
   583   437   471 1
   584   437   497 1
   585   438   500 1
   586   438   472 1
   587   438   477 1
   588   635   642 1
   589   439   473 1
   590   439   625 1
   591   439   673 1
   592   449   625 1
   593   625   635 1
   594   440   474 1
   595   632   666 1
   596   444   626 1
   597   626   632 1
   598   445   448 1
   599   509   514 1
   600   509   515 1
   601   514   522 1
   602   514   525 1
   603   514   520 1
   604   515   526 1
   605   501   508 1
   606   494   501 1
   607   502   507 1
   608   487   502 1
   609   488   504 1
   610   489   503 1
   611   495   499 1
   612   499   503 1
   613   499   505 1
   614   547   549 1
   615   547   555 1
   616   490   507 1
   617   491   508 1
   618   493   498 1
   619   498   508 1
   620   498   502 1
   621   492   506 1
   622   496   505 1
   623   505  1272 1
   624  1256  1272 1
   625   512   518 1
   626   510   512 1
   627   510   707 1
   628   511   512 1
   629   511   701 1
   630   701   707 1
   631   707   718 1
   632   701   706 1
   633   511   517 1
   634   510   516 1
   635   516   524 1
   636   513   519 1
   637   513   516 1
   638   513   521 1
   639   513   523 1
   640   516   719 1
   641   528   733 1
   642   529   535 1
   643   529   537 1
   644   529   562 1
   645   546   553 1
   646   541   571 1
   647   532  1344 1
   648   533   542 1
   649   542   574 1
   650   534   542 1
   651   538   563 1
   652   543   546 1
   653   545   548 1
   654   543   545 1
   655   545   551 1
   656   545   552 1
   657   543   547 1
   658   544   546 1
   659   544   549 1
   660   544   550 1
   661   549   559 1
   662   550   556 1
   663   550   557 1
   664   550   561 1
   665   548   554 1
   666   548   558 1
   667   548   560 1
   668   563   569 1
   669   564   570 1
   670   575   754 1
   671   721   754 1
   672   565   575 1
   673   567   575 1
   674   721   729 1
   675   721   727 1
   676   568   576 1
   677   733   763 1
   678   724  1536 1
   679   577   654 1
   680   577   672 1
   681   577   583 1
   682   577   656 1
   683   577   658 1
   684   577   678 1
   685   591   678 1
   686   577   674 1
   687   579   676 1
   688   579   652 1
   689   579   669 1
   690   579   582 1
   691   579   659 1
   692   579   661 1
   693   593   622 1
   694   616   620 1
   695   580   662 1
   696   580   670 1
   697   580   581 1
   698   580   651 1
   699   580   660 1
   700   612   616 1
   701   612   650 1
   702   612   651 1
   703   616   621 1
   704   580   675 1
   705   582   659 1
   706   582   661 1
   707   582   649 1
   708   582   665 1
   709   582   667 1
   710   610   614 1
   711   610   654 1
   712   583   664 1
   713   583   676 1
   714   583   648 1
   715   610   648 1
   716   583   656 1
   717   583   658 1
   718   584   647 1
   719   584   655 1
   720   584   657 1
   721   584   663 1
   722   584   675 1
   723   601   675 1
   724   585   636 1
   725   586   635 1
   726   596   623 1
   727   623  1386 1
   728   587   638 1
   729   628   634 1
   730   628   638 1
   731   634   672 1
   732   588  1405 1
   733   607   646 1
   734   608   646 1
   735   589   641 1
   736   631   665 1
   737   590   640 1
   738   598   620 1
   739   592   677 1
   740   594   621 1
   741   595   624 1
   742   597   618 1
   743   730   755 1
   744   602   676 1
   745   702   704 1
   746   702   708 1
   747   704   710 1
   748   708   716 1
   749   705   708 1
   750   627   633 1
   751   603   644 1
   752   627   639 1
   753   639   644 1
   754   705   711 1
   755   705   713 1
   756   705   715 1
   757   639  1406 1
   758   633   667 1
   759   604   644 1
   760   613   623 1
   761   617  1392 1
   762   605   645 1
   763   613   617 1
   764   617   645 1
   765   726   734 1
   766   606   645 1
   767   609   647 1
   768   609   653 1
   769   609   613 1
   770   611   652 1
   771   615   619 1
   772   611   615 1
   773   615   622 1
   774   611   649 1
   775   614   618 1
   776   614   624 1
   777   629   670 1
   778   629   689 1
   779   629   663 1
   780   630   664 1
   781   630   692 1
   782   630   669 1
   783   637   640 1
   784   679   694 1
   785   682   699 1
   786   680   696 1
   787   687   691 1
   788   706   714 1
   789   706   717 1
   790   681   695 1
   791   691   695 1
   792   706   712 1
   793   691   697 1
   794   683   700 1
   795   693   700 1
   796   686   693 1
   797   689   693 1
   798   689   699 1
   799   684   698 1
   800   698  1460 1
   801  1351  1432 1
   802  1398  1432 1
   803  1398  1460 1
   804  1351  1426 1
   805  1351  1416 1
   806  1351  1424 1
   807  1398  1437 1
   808  1351  1444 1
   809   685   690 1
   810   690   694 1
   811   690   700 1
   812   694   699 1
   813   688   697 1
   814   697  1464 1
   815   703   709 1
   816   703   704 1
   817   725   734 1
   818   734   766 1
   819   722   731 1
   820   722   756 1
   821   722   765 1
   822   756   762 1
   823   742   753 1
   824   735   738 1
   825   735   739 1
   826   736   738 1
   827   736   741 1
   828   736   742 1
   829   738   745 1
   830   739   741 1
   831   741   751 1
   832   742   748 1
   833   742   749 1
   834   739   747 1
   835   735   737 1
   836   737   740 1
   837   737   744 1
   838   737   743 1
   839   740   752 1
   840   740   746 1
   841   740   750 1
   842   755   761 1
   843   757   767 1
   844   759   767 1
   845   760   768 1
   846   965  1052 1
   847   769   775 1
   848   769   850 1
   849   965  1046 1
   850   769   846 1
   851   769   848 1
   852   769   864 1
   853   769   866 1
   854   769   870 1
   855   769   965 1
   856   870   965 1
   857   965  1050 1
   858   965  1034 1
   859   965  1044 1
   860   866  1016 1
   861   770   847 1
   862   770   776 1
   863   770   865 1
   864   770   845 1
   865   770   849 1
   866   770   863 1
   867   770   869 1
   868   771   844 1
   869   771   851 1
   870   771   853 1
   871   771   861 1
   872   771   868 1
   873   794   868 1
   874   771   774 1
   875   772   854 1
   876   772   773 1
   877   772   843 1
   878   772   867 1
   879   793   867 1
   880   772   862 1
   881   772   852 1
   882   784   869 1
   883   773   854 1
   884   773   842 1
   885   773   858 1
   886   773   860 1
   887   824   858 1
   888   773   852 1
   889   774   851 1
   890   774   853 1
   891   774  1061 1
   892   774   857 1
   893   774   841 1
   894   774   859 1
   895   825   859 1
   896   825  1055 1
   897   774   962 1
   898   822   884 1
   899   775   850 1
   900   775   856 1
   901   822   856 1
   902   775   840 1
   903   775   848 1
   904   775   868 1
   905   822   861 1
   906   776   847 1
   907   821   881 1
   908   776   867 1
   909   776   855 1
   910   821   855 1
   911   821   862 1
   912   776   849 1
   913   776   839 1
   914   777   828 1
   915   827   834 1
   916   778   827 1
   917   817   827 1
   918   787   816 1
   919   779   830 1
   920   807   814 1
   921   800   838 1
   922   807   811 1
   923   811   838 1
   924   781   833 1
   925   782   832 1
   926   783   870 1
   927   785   814 1
   928   808   812 1
   929   804   842 1
   930   786   813 1
   931   804   808 1
   932   804   843 1
   933   808   813 1
   934   813  1195 1
   935   788   815 1
   936   789   810 1
   937   790   812 1
   938   812  1198 1
   939   818   824 1
   940   791  1219 1
   941   818  1218 1
   942  1176  1219 1
   943  1211  1218 1
   944  1218  1219 1
   945   792   835 1
   946   834   835 1
   947   795   836 1
   948   803   844 1
   949   803   807 1
   950   803   841 1
   951   796   836 1
   952   797   837 1
   953   801   805 1
   954   801   845 1
   955   801   839 1
   956   798   837 1
   957   799   838 1
   958   914   923 1
   959   914   948 1
   960   914   957 1
   961   806   816 1
   962   806   810 1
   963   802   806 1
   964   802   840 1
   965   802   846 1
   966   805   809 1
   967   809   837 1
   968   805   815 1
   969   819   825 1
   970   831   836 1
   971   819   831 1
   972   820   826 1
   973   820   830 1
   974   820  1024 1
   975   826  1052 1
   976   826   864 1
   977  1019  1026 1
   978   823   857 1
   979   823  1009 1
   980   823  1057 1
   981   833  1009 1
   982  1009  1019 1
   983  1016  1050 1
   984   828  1010 1
   985  1010  1016 1
   986  1010  1410 1
   987  1410  1411 1
   988   828  1217 1
   989   927   930 1
   990   929   932 1
   991   927   929 1
   992   929   935 1
   993   929   936 1
   994   927   931 1
   995   893   898 1
   996   893   899 1
   997   898   906 1
   998   898   909 1
   999   898   904 1
  1000   899   910 1
  1001   886   891 1
  1002   871   886 1
  1003   873   887 1
  1004   879   883 1
  1005   883   887 1
  1006   887  1274 1
  1007   883   889 1
  1008   931   933 1
  1009   881   885 1
  1010   931   939 1
  1011   874   891 1
  1012   881   891 1
  1013   875   892 1
  1014   877   882 1
  1015   882   892 1
  1016   882   886 1
  1017   876   890 1
  1018   885   892 1
  1019   878   885 1
  1020   880   889 1
  1021   894   896 1
  1022   894  1091 1
  1023   895   896 1
  1024   895  1085 1
  1025   896   902 1
  1026  1085  1091 1
  1027  1085  1090 1
  1028  1091  1102 1
  1029   895   901 1
  1030   894   900 1
  1031   900   908 1
  1032   897   903 1
  1033   897   900 1
  1034   897   905 1
  1035   897   907 1
  1036   900  1103 1
  1037   912  1117 1
  1038   913   919 1
  1039   913   921 1
  1040   913   946 1
  1041   930   937 1
  1042   925   955 1
  1043   925  1299 1
  1044   917   926 1
  1045   926  1332 1
  1046   926   958 1
  1047   918   926 1
  1048   922   947 1
  1049  1183  1222 1
  1050  1184  1222 1
  1051  1195  1222 1
  1052   928   930 1
  1053   928   933 1
  1054   928   934 1
  1055   933   943 1
  1056   934   940 1
  1057   934   941 1
  1058   934   945 1
  1059   932   938 1
  1060   932   942 1
  1061   932   944 1
  1062   948   954 1
  1063   959  1138 1
  1064  1105  1138 1
  1065   949   959 1
  1066   951   959 1
  1067  1105  1113 1
  1068  1105  1111 1
  1069   952   960 1
  1070  1316  1322 1
  1071  1316  1326 1
  1072  1316  1328 1
  1073  1117  1147 1
  1074  1117  1491 1
  1075   961  1056 1
  1076   967  1048 1
  1077   967  1060 1
  1078   967  1032 1
  1079   961   967 1
  1080   961  1038 1
  1081   961  1040 1
  1082   961  1042 1
  1083   961  1062 1
  1084   967  1040 1
  1085   967  1042 1
  1086   975  1062 1
  1087   961  1058 1
  1088   962  1061 1
  1089   962   968 1
  1090   962  1039 1
  1091   962  1041 1
  1092   993  1031 1
  1093   962  1057 1
  1094   993   997 1
  1095   962  1055 1
  1096   962  1037 1
  1097   993  1037 1
  1098   963  1060 1
  1099   963  1036 1
  1100   963  1053 1
  1101   963   966 1
  1102   963  1043 1
  1103   963  1045 1
  1104   966  1043 1
  1105   966  1045 1
  1106   966  1049 1
  1107   966  1033 1
  1108   966  1051 1
  1109   964  1046 1
  1110   964  1054 1
  1111   964   965 1
  1112   964  1035 1
  1113   964  1044 1
  1114   964  1059 1
  1115   968  1031 1
  1116   968  1039 1
  1117   968  1041 1
  1118   968  1047 1
  1119   968  1059 1
  1120   985  1059 1
  1121   969  1020 1
  1122  1020  1409 1
  1123   970  1019 1
  1124   980  1007 1
  1125   971  1022 1
  1126  1012  1018 1
  1127  1012  1022 1
  1128  1018  1056 1
  1129   973  1025 1
  1130   991  1030 1
  1131   992  1030 1
  1132   974  1024 1
  1133   982  1004 1
  1134  1004  1390 1
  1135   976  1061 1
  1136   995  1036 1
  1137   999  1003 1
  1138   977  1006 1
  1139   995   999 1
  1140   999  1006 1
  1141   995  1033 1
  1142  1000  1004 1
  1143  1005  1387 1
  1144   978  1005 1
  1145  1000  1005 1
  1146   981  1002 1
  1147   994   998 1
  1148   994  1032 1
  1149   994  1038 1
  1150   983  1411 1
  1151  1368  1411 1
  1152   984  1027 1
  1153   986  1060 1
  1154  1086  1088 1
  1155  1086  1092 1
  1156  1088  1094 1
  1157  1092  1100 1
  1158   987  1028 1
  1159   988  1028 1
  1160  1011  1017 1
  1161  1011  1023 1
  1162   989  1029 1
  1163   990  1029 1
  1164   996  1034 1
  1165   996  1035 1
  1166   996  1000 1
  1167   997  1007 1
  1168   997  1001 1
  1169  1001  1029 1
  1170   998  1002 1
  1171   998  1008 1
  1172  1003  1030 1
  1173  1077  1084 1
  1174  1013  1054 1
  1175  1013  1073 1
  1176  1070  1077 1
  1177  1073  1077 1
  1178  1073  1083 1
  1179  1013  1047 1
  1180  1015  1049 1
  1181  1017  1051 1
  1182  1089  1092 1
  1183  1023  1028 1
  1184  1089  1095 1
  1185  1089  1097 1
  1186  1089  1099 1
  1187  1026  1027 1
  1188  1063  1078 1
  1189  1066  1083 1
  1190  1064  1080 1
  1191  1065  1079 1
  1192  1079  1466 1
  1193  1067  1084 1
  1194  1069  1074 1
  1195  1074  1078 1
  1196  1074  1084 1
  1197  1078  1083 1
  1198  1068  1082 1
  1199  1071  1075 1
  1200  1090  1098 1
  1201  1090  1101 1
  1202  1075  1079 1
  1203  1090  1096 1
  1204  1075  1081 1
  1205  1072  1081 1
  1206  1087  1093 1
  1207  1087  1088 1
  1208  1109  1118 1
  1209  1118  1150 1
  1210  1118  1524 1
  1211  1106  1115 1
  1212  1106  1140 1
  1213  1106  1149 1
  1214  1140  1146 1
  1215  1110  1118 1
  1216  1126  1137 1
  1217  1119  1122 1
  1218  1119  1123 1
  1219  1120  1122 1
  1220  1120  1125 1
  1221  1120  1126 1
  1222  1122  1129 1
  1223  1123  1125 1
  1224  1126  1133 1
  1225  1125  1135 1
  1226  1126  1132 1
  1227  1123  1131 1
  1228  1119  1121 1
  1229  1114  1139 1
  1230  1139  1145 1
  1231  1121  1124 1
  1232  1121  1128 1
  1233  1121  1127 1
  1234  1124  1136 1
  1235  1124  1130 1
  1236  1124  1134 1
  1237  1143  1151 1
  1238  1153  1234 1
  1239  1349  1430 1
  1240  1153  1230 1
  1241  1153  1248 1
  1242  1153  1250 1
  1243  1153  1254 1
  1244  1153  1349 1
  1245  1210  1248 1
  1246  1210  1436 1
  1247  1250  1400 1
  1248  1254  1349 1
  1249  1349  1434 1
  1250  1349  1436 1
  1251  1400  1434 1
  1252  1349  1418 1
  1253  1153  1159 1
  1254  1153  1232 1
  1255  1349  1428 1
  1256  1154  1229 1
  1257  1154  1231 1
  1258  1154  1249 1
  1259  1154  1233 1
  1260  1154  1253 1
  1261  1168  1253 1
  1262  1154  1160 1
  1263  1154  1247 1
  1264  1159  1234 1
  1265  1159  1224 1
  1266  1206  1268 1
  1267  1155  1235 1
  1268  1155  1245 1
  1269  1155  1252 1
  1270  1159  1240 1
  1271  1159  1252 1
  1272  1178  1252 1
  1273  1206  1240 1
  1274  1206  1245 1
  1275  1159  1232 1
  1276  1155  1228 1
  1277  1155  1237 1
  1278  1155  1158 1
  1279  1156  1238 1
  1280  1156  1157 1
  1281  1156  1227 1
  1282  1156  1251 1
  1283  1177  1251 1
  1284  1156  1246 1
  1285  1156  1236 1
  1286  1157  1238 1
  1287  1157  1226 1
  1288  1157  1244 1
  1289  1157  1236 1
  1290  1157  1242 1
  1291  1158  1235 1
  1292  1158  1241 1
  1293  1158  1225 1
  1294  1158  1237 1
  1295  1158  1243 1
  1296  1158  1445 1
  1297  1209  1243 1
  1298  1209  1439 1
  1299  1158  1346 1
  1300  1160  1251 1
  1301  1160  1239 1
  1302  1160  1231 1
  1303  1182  1221 1
  1304  1160  1233 1
  1305  1160  1223 1
  1306  1263  1267 1
  1307  1264  1273 1
  1308  1161  1212 1
  1309  1162  1211 1
  1310  1201  1211 1
  1311  1171  1200 1
  1312  1163  1214 1
  1313  1191  1198 1
  1314  1165  1217 1
  1315  1191  1195 1
  1316  1166  1216 1
  1317  1167  1254 1
  1318  1169  1198 1
  1319  1315  1323 1
  1320  1315  1317 1
  1321  1188  1226 1
  1322  1170  1197 1
  1323  1174  1196 1
  1324  1188  1192 1
  1325  1188  1227 1
  1326  1192  1196 1
  1327  1192  1197 1
  1328  1189  1193 1
  1329  1172  1199 1
  1330  1189  1199 1
  1331  1202  1208 1
  1332  1179  1220 1
  1333  1180  1220 1
  1334  1181  1221 1
  1335  1185  1229 1
  1336  1193  1221 1
  1337  1185  1223 1
  1338  1185  1189 1
  1339  1186  1190 1
  1340  1186  1224 1
  1341  1186  1230 1
  1342  1187  1191 1
  1343  1187  1225 1
  1344  1187  1228 1
  1345  1203  1209 1
  1346  1215  1220 1
  1347  1203  1215 1
  1348  1204  1214 1
  1349  1204  1408 1
  1350  1204  1210 1
  1351  1205  1265 1
  1352  1205  1239 1
  1353  1205  1246 1
  1354  1403  1410 1
  1355  1207  1241 1
  1356  1207  1393 1
  1357  1207  1441 1
  1358  1217  1393 1
  1359  1393  1403 1
  1360  1208  1242 1
  1361  1277  1282 1
  1362  1282  1290 1
  1363  1282  1288 1
  1364  1277  1283 1
  1365  1282  1293 1
  1366  1394  1400 1
  1367  1212  1394 1
  1368  1259  1276 1
  1369  1261  1266 1
  1370  1266  1276 1
  1371  1270  1275 1
  1372  1255  1270 1
  1373  1266  1270 1
  1374  1257  1271 1
  1375  1317  1327 1
  1376  1265  1269 1
  1377  1258  1275 1
  1378  1265  1275 1
  1379  1260  1274 1
  1380  1262  1269 1
  1381  1267  1271 1
  1382  1267  1273 1
  1383  1312  1318 1
  1384  1318  1324 1
  1385  1318  1325 1
  1386  1318  1329 1
  1387  1269  1276 1
  1388  1312  1314 1
  1389  1312  1317 1
  1390  1278  1280 1
  1391  1278  1475 1
  1392  1281  1287 1
  1393  1278  1284 1
  1394  1281  1284 1
  1395  1281  1289 1
  1396  1281  1291 1
  1397  1284  1292 1
  1398  1284  1487 1
  1399  1280  1286 1
  1400  1279  1280 1
  1401  1279  1469 1
  1402  1469  1475 1
  1403  1469  1474 1
  1404  1279  1285 1
  1405  1475  1486 1
  1406  1283  1294 1
  1407  1296  1501 1
  1408  1501  1531 1
  1409  1298  1307 1
  1410  1298  1332 1
  1411  1298  1341 1
  1412  1301  1310 1
  1413  1302  1310 1
  1414  1310  1342 1
  1415  1313  1316 1
  1416  1311  1315 1
  1417  1311  1313 1
  1418  1311  1314 1
  1419  1313  1319 1
  1420  1313  1320 1
  1421  1314  1321 1
  1422  1306  1331 1
  1423  1309  1339 1
  1424  1332  1338 1
  1425  1333  1343 1
  1426  1335  1343 1
  1427  1343  1522 1
  1428  1489  1497 1
  1429  1489  1522 1
  1430  1489  1495 1
  1431  1336  1344 1
  1432  1345  1351 1
  1433  1345  1426 1
  1434  1345  1422 1
  1435  1345  1424 1
  1436  1345  1440 1
  1437  1345  1442 1
  1438  1345  1446 1
  1439  1346  1423 1
  1440  1346  1352 1
  1441  1346  1441 1
  1442  1377  1381 1
  1443  1346  1439 1
  1444  1346  1445 1
  1445  1346  1421 1
  1446  1346  1425 1
  1447  1377  1415 1
  1448  1377  1421 1
  1449  1347  1420 1
  1450  1347  1437 1
  1451  1347  1427 1
  1452  1347  1429 1
  1453  1347  1444 1
  1454  1370  1444 1
  1455  1347  1350 1
  1456  1348  1430 1
  1457  1348  1349 1
  1458  1348  1419 1
  1459  1352  1423 1
  1460  1348  1438 1
  1461  1348  1443 1
  1462  1352  1431 1
  1463  1352  1443 1
  1464  1369  1443 1
  1465  1397  1431 1
  1466  1397  1438 1
  1467  1397  1457 1
  1468  1348  1428 1
  1469  1352  1415 1
  1470  1352  1425 1
  1471  1350  1427 1
  1472  1350  1429 1
  1473  1350  1433 1
  1474  1350  1417 1
  1475  1350  1435 1
  1476  1401  1435 1
  1477  1372  1412 1
  1478  1353  1404 1
  1479  1354  1403 1
  1480  1355  1406 1
  1481  1396  1402 1
  1482  1396  1406 1
  1483  1402  1440 1
  1484  1376  1414 1
  1485  1357  1409 1
  1486  1358  1408 1
  1487  1366  1388 1
  1488  1359  1446 1
  1489  1360  1445 1
  1490  1379  1420 1
  1491  1379  1383 1
  1492  1361  1390 1
  1493  1379  1417 1
  1494  1362  1389 1
  1495  1363  1392 1
  1496  1364  1391 1
  1497  1382  1392 1
  1498  1365  1386 1
  1499  1378  1382 1
  1500  1378  1416 1
  1501  1382  1386 1
  1502  1378  1422 1
  1503  1395  1401 1
  1504  1371  1412 1
  1505  1395  1407 1
  1506  1407  1412 1
  1507  1373  1413 1
  1508  1374  1413 1
  1509  1375  1414 1
  1510  1490  1499 1
  1511  1490  1524 1
  1512  1524  1530 1
  1513  1490  1533 1
  1514  1384  1388 1
  1515  1380  1384 1
  1516  1380  1418 1
  1517  1380  1419 1
  1518  1384  1389 1
  1519  1381  1385 1
  1520  1385  1413 1
  1521  1381  1391 1
  1522  1383  1387 1
  1523  1387  1414 1
  1524  1383  1390 1
  1525  1399  1433 1
  1526  1503  1506 1
  1527  1507  1509 1
  1528  1505  1508 1
  1529  1507  1515 1
  1530  1505  1512 1
  1531  1503  1505 1
  1532  1503  1507 1
  1533  1505  1511 1
  1534  1455  1459 1
  1535  1474  1482 1
  1536  1474  1485 1
  1537  1459  1463 1
  1538  1474  1480 1
  1539  1459  1465 1
  1540  1447  1462 1
  1541  1450  1467 1
  1542  1462  1467 1
  1543  1448  1464 1
  1544  1449  1463 1
  1545  1451  1468 1
  1546  1453  1458 1
  1547  1458  1468 1
  1548  1458  1462 1
  1549  1452  1466 1
  1550  1461  1468 1
  1551  1454  1461 1
  1552  1456  1465 1
  1553  1457  1461 1
  1554  1457  1467 1
  1555  1470  1472 1
  1556  1471  1472 1
  1557  1472  1478 1
  1558  1471  1477 1
  1559  1470  1476 1
  1560  1473  1476 1
  1561  1473  1479 1
  1562  1473  1481 1
  1563  1473  1483 1
  1564  1476  1484 1
  1565  1493  1502 1
  1566  1502  1534 1
  1567  1494  1502 1
  1568  1504  1506 1
  1569  1504  1509 1
  1570  1504  1510 1
  1571  1506  1513 1
  1572  1510  1517 1
  1573  1510  1521 1
  1574  1509  1519 1
  1575  1510  1516 1
  1576  1498  1523 1
  1577  1508  1514 1
  1578  1508  1520 1
  1579  1508  1518 1
  1580  1525  1535 1
  1581  1527  1535 1
  1582  1528  1536 1
