@<TRIPOS>MOLECULE
frame0008
 1536 1622 0 0 0
SMALL
NO_CHARGES

@<TRIPOS>ATOM
      1 Ti1         -2.8554     2.2298    11.2464 Ti        1 MOL       0.0000
      2 Ti2          7.9750     5.1110     1.8816 Ti        1 MOL       0.0000
      3 Ti3          1.2412    -1.7064     9.4264 Ti        1 MOL       0.0000
      4 Ti4          2.7524     7.4557     3.6534 Ti        1 MOL       0.0000
      5 Ti5          1.7539     9.1340     1.7490 Ti        1 MOL       0.0000
      6 Ti6          3.1294    -1.9608    11.3798 Ti        1 MOL       0.0000
      7 Ti7         -1.9062     0.4939     9.3549 Ti        1 MOL       0.0000
      8 Ti8          5.9872     5.4135     3.7290 Ti        1 MOL       0.0000
      9 H1          -2.3536     6.1269    11.0269 H         1 MOL       0.0000
     10 H2           8.7838     1.2049     2.2023 H         1 MOL       0.0000
     11 H3          -6.8153     1.4731    10.8640 H         1 MOL       0.0000
     12 H4          11.3572     7.1153     2.0822 H         1 MOL       0.0000
     13 H5           4.1051    -5.9953    10.9939 H         1 MOL       0.0000
     14 H6          -2.3047     8.5441     2.0711 H         1 MOL       0.0000
     15 H7          -2.3867     0.4312    12.9709 H         1 MOL       0.0000
     16 H8           6.0995     4.8683     0.1817 H         1 MOL       0.0000
     17 H9           3.6394    -2.6279     5.8687 H         1 MOL       0.0000
     18 H10          1.0290     9.2927     7.2723 H         1 MOL       0.0000
     19 H11         -5.9789     3.8825     8.9990 H         1 MOL       0.0000
     20 H12         10.7298     3.0266     4.1876 H         1 MOL       0.0000
     21 H13         -3.6778     2.4351     5.6652 H         1 MOL       0.0000
     22 H14         -1.3462    10.9619     4.1022 H         1 MOL       0.0000
     23 H15          2.1461    12.2368     2.6045 H         1 MOL       0.0000
     24 H16          8.6260    -0.8139     3.4048 H         1 MOL       0.0000
     25 H17          4.8451     7.1358     2.3148 H         1 MOL       0.0000
     26 H18          0.1606     0.1420    10.7200 H         1 MOL       0.0000
     27 H19          7.3642    -0.0259     9.7695 H         1 MOL       0.0000
     28 H20          5.8831    -0.4950    10.5168 H         1 MOL       0.0000
     29 H21          7.9383     4.4077     8.6706 H         1 MOL       0.0000
     30 H22          7.3686     4.7663     7.0520 H         1 MOL       0.0000
     31 H23          6.8754    -4.9808     9.5794 H         1 MOL       0.0000
     32 H24          5.5962    -3.8802    10.0368 H         1 MOL       0.0000
     33 C1           8.5531     4.3697     4.7451 C         1 MOL       0.0000
     34 C2          -3.8160     2.4911     8.3994 C         1 MOL       0.0000
     35 C3           3.8218    -2.7171     8.5017 C         1 MOL       0.0000
     36 C4           0.8163     9.4262     4.6128 C         1 MOL       0.0000
     37 C5           9.4491     3.7654     5.7403 C         1 MOL       0.0000
     38 C6          -4.7479     3.1162     7.4223 C         1 MOL       0.0000
     39 C7           4.7619    -3.3315     7.5545 C         1 MOL       0.0000
     40 C8          -0.0735    10.0730     5.6125 C         1 MOL       0.0000
     41 C9           9.2003     3.8403     7.1467 C         1 MOL       0.0000
     42 C10         -4.5315     2.9962     6.0343 C         1 MOL       0.0000
     43 C11          5.8914    -4.0918     8.0076 C         1 MOL       0.0000
     44 C12         -1.1682    10.8460     5.1676 C         1 MOL       0.0000
     45 C13          0.1810     9.9023     6.9674 C         1 MOL       0.0000
     46 C14          4.5142    -3.1993     6.1706 C         1 MOL       0.0000
     47 C15         10.5828     3.0664     5.2646 C         1 MOL       0.0000
     48 C16         -5.8480     3.8086     7.9210 C         1 MOL       0.0000
     49 C17          8.7648     1.2840     0.0582 C         1 MOL       0.0000
     50 C18          2.2951    13.0756     0.0832 C         1 MOL       0.0000
     51 C19          6.6143    -0.0189    13.0272 C         1 MOL       0.0000
     52 C20         -6.7440     1.5235    13.0078 C         1 MOL       0.0000
     53 C21          3.4992     5.1125     5.6180 C         1 MOL       0.0000
     54 C22         -1.2569    -1.9819     7.5361 C         1 MOL       0.0000
     55 C23          3.9940    -4.3272    13.1300 C         1 MOL       0.0000
     56 C24          2.2024    11.6421     0.0457 C         1 MOL       0.0000
     57 C25          5.3165    -0.6357    13.0740 C         1 MOL       0.0000
     58 C26         -5.3417     1.9379    13.0323 C         1 MOL       0.0000
     59 C27          8.8042     0.6149     1.2879 C         1 MOL       0.0000
     60 C28         -2.3426     6.7153    11.9408 C         1 MOL       0.0000
     61 C29         -4.0954     7.8789     1.0761 C         1 MOL       0.0000
     62 C30         -7.3768     1.2938    11.7793 C         1 MOL       0.0000
     63 C31          7.3089     0.2494    11.7938 C         1 MOL       0.0000
     64 C32         -2.8062     8.3591     1.1253 C         1 MOL       0.0000
     65 C33          4.1467    -6.5225    11.9429 C         1 MOL       0.0000
     66 C34          8.8259    -0.7862     1.3695 C         1 MOL       0.0000
     67 N1           8.8810    -1.3851     2.6076 N         1 MOL       0.0000
     68 N2           6.7299     0.0665    10.5548 N         1 MOL       0.0000
     69 N3           8.1195     4.4866     7.6780 N         1 MOL       0.0000
     70 N4           6.2224    -4.2500     9.3250 N         1 MOL       0.0000
     71 O1           7.3768     4.7748     5.1109 O         1 MOL       0.0000
     72 O2          -3.0470     1.5403     8.0011 O         1 MOL       0.0000
     73 O3           4.2032    -2.5927     9.7228 O         1 MOL       0.0000
     74 O4           0.7505     9.8559     3.4131 O         1 MOL       0.0000
     75 O5           1.5868     8.4690     4.9992 O         1 MOL       0.0000
     76 O6           2.6513    -2.3487     8.0962 O         1 MOL       0.0000
     77 O7           8.9650     4.4505     3.5334 O         1 MOL       0.0000
     78 O8          -3.8580     2.9274     9.5991 O         1 MOL       0.0000
     79 O9           6.2924     4.1956     2.5344 O         1 MOL       0.0000
     80 O10         -1.3538     2.0542    10.0994 O         1 MOL       0.0000
     81 O11          7.2312     6.4829     2.9843 O         1 MOL       0.0000
     82 O12         -3.1060     0.3295    10.5921 O         1 MOL       0.0000
     83 O13          1.5006    -2.8784    10.6868 O         1 MOL       0.0000
     84 O14          3.2690     9.0170     2.9149 O         1 MOL       0.0000
     85 O15          2.4545    -0.6169    10.2227 O         1 MOL       0.0000
     86 O16          1.5628     7.2599     2.3975 O         1 MOL       0.0000
     87 O17          4.7203     4.9326     5.2637 O         1 MOL       0.0000
     88 O18         -1.9146    -0.9469     7.9143 O         1 MOL       0.0000
     89 O19          3.8718    -3.7326    11.9889 O         1 MOL       0.0000
     90 O20          2.1193    10.9406     1.1409 O         1 MOL       0.0000
     91 O21          4.6739    -0.9445    11.9838 O         1 MOL       0.0000
     92 O22         -0.1167     9.1049     1.0808 O         1 MOL       0.0000
     93 O23         -0.0951    -2.2764     7.9939 O         1 MOL       0.0000
     94 O24          2.7573     6.0334     5.1246 O         1 MOL       0.0000
     95 O25          9.4121     6.1301     1.1270 O         1 MOL       0.0000
     96 O26         -4.7422     2.1697    11.9148 O         1 MOL       0.0000
     97 O27          8.6166     3.3758     1.1564 O         1 MOL       0.0000
     98 O28         -2.4740     3.9521    11.9961 O         1 MOL       0.0000
     99 O29          4.4842     6.5871     3.0354 O         1 MOL       0.0000
    100 O30         -0.2177    -0.4167    10.0165 O         1 MOL       0.0000
    101 O31          6.9383     5.3620     0.1026 O         1 MOL       0.0000
    102 O32         -2.2643     1.3980    13.0309 O         1 MOL       0.0000
    103 H25          3.7018     1.4641     8.5232 H         1 MOL       0.0000
    104 H26         -6.6026    10.6154     6.1068 H         1 MOL       0.0000
    105 H27          4.4547    10.2132     5.5921 H         1 MOL       0.0000
    106 H28          4.6970     3.0059     6.8073 H         1 MOL       0.0000
    107 H29          0.0421     3.7261     8.4272 H         1 MOL       0.0000
    108 H30         12.1285    -2.6547     7.0153 H         1 MOL       0.0000
    109 H31          1.3741     1.8300     9.2931 H         1 MOL       0.0000
    110 H32          1.0431     5.2720     6.7140 H         1 MOL       0.0000
    111 H33          5.7914     8.4450     4.4704 H         1 MOL       0.0000
    112 H34          8.2481     8.3511     4.7573 H         1 MOL       0.0000
    113 C35          2.9230     4.2195     6.6544 C         1 MOL       0.0000
    114 C36          1.8140     2.5061     8.5614 C         1 MOL       0.0000
    115 C37          6.2887     9.1787     5.1040 C         1 MOL       0.0000
    116 C38         -1.9142    -2.9555     6.6333 C         1 MOL       0.0000
    117 C39          1.6094     4.4320     7.1105 C         1 MOL       0.0000
    118 C40          3.1281     2.2991     8.1241 C         1 MOL       0.0000
    119 C41          5.5359    10.1871     5.7170 C         1 MOL       0.0000
    120 C42         -7.6814    10.6354     5.9691 C         1 MOL       0.0000
    121 C43          7.6767     9.1246     5.2677 C         1 MOL       0.0000
    122 C44         12.6924    -3.4528     6.5388 C         1 MOL       0.0000
    123 C45          3.6827     3.1540     7.1710 C         1 MOL       0.0000
    124 C46          1.0570     3.5737     8.0628 C         1 MOL       0.0000
    125 N5           5.3921    10.7304     1.2651 N         1 MOL       0.0000
    126 N6           2.1047     2.7396    12.8777 N         1 MOL       0.0000
    127 C47          5.2430    11.4098     0.0491 C         1 MOL       0.0000
    128 C48          1.4071     3.7314    12.2133 C         1 MOL       0.0000
    129 C49          4.3973     2.7098    11.8715 C         1 MOL       0.0000
    130 C50          4.9202    11.2513     2.5873 C         1 MOL       0.0000
    131 C51          6.3783     9.8205     1.0861 C         1 MOL       0.0000
    132 C52          3.1672     1.9046    12.2796 C         1 MOL       0.0000
    133 H35          0.0833     5.2894    13.0585 H         1 MOL       0.0000
    134 H36          1.5360     3.9229    11.1515 H         1 MOL       0.0000
    135 H37          4.1405     3.5054    11.1585 H         1 MOL       0.0000
    136 H38          4.5416    12.2701     2.4400 H         1 MOL       0.0000
    137 H39          4.8735     3.1871    12.7355 H         1 MOL       0.0000
    138 H40          4.1825    10.5959     3.0131 H         1 MOL       0.0000
    139 H41          5.1206     2.0424    11.3846 H         1 MOL       0.0000
    140 H42          2.7234     1.3822    11.4223 H         1 MOL       0.0000
    141 H43          5.7578    11.3191     3.2842 H         1 MOL       0.0000
    142 H44          6.9021     9.2853     1.8673 H         1 MOL       0.0000
    143 H45          3.4019     1.1424    13.0295 H         1 MOL       0.0000
    144 N7          13.3931    -0.4860     0.2248 N         1 MOL       0.0000
    145 C53          0.3483     0.4532     1.7139 C         1 MOL       0.0000
    146 C54          9.7154    -5.7772    10.9768 C         1 MOL       0.0000
    147 O33         13.7972    -0.5124     2.7017 O         1 MOL       0.0000
    148 O34          8.4984    11.7130     1.3032 O         1 MOL       0.0000
    149 O35          1.2531     6.6623    10.9930 O         1 MOL       0.0000
    150 O36          3.8547     6.1000    10.3114 O         1 MOL       0.0000
    151 F1          -0.0227     1.9459     2.1232 F         1 MOL       0.0000
    152 F2          10.3915    -4.3479    11.8020 F         1 MOL       0.0000
    153 F3           1.7788     1.1069     0.9345 F         1 MOL       0.0000
    154 F4          -0.1362    -0.0379     3.6241 F         1 MOL       0.0000
    155 F5           8.5776    -4.9685    10.6636 F         1 MOL       0.0000
    156 F6           2.6954     8.2452     9.0499 F         1 MOL       0.0000
    157 S1           7.7996    13.3054     1.3484 S         1 MOL       0.0000
    158 S2           2.5876     6.8909    11.4623 S         1 MOL       0.0000
    159 N8           3.0893     1.4938     3.1889 N         1 MOL       0.0000
    160 N9           1.2274     2.2352     4.1423 N         1 MOL       0.0000
    161 C55          4.0559     1.1300     2.1028 C         1 MOL       0.0000
    162 C56          2.0200     2.2900     3.0406 C         1 MOL       0.0000
    163 C57          2.9753     0.8588     4.4262 C         1 MOL       0.0000
    164 C58          3.8903    -0.2334     1.4009 C         1 MOL       0.0000
    165 C59          1.8186     1.3084     5.0014 C         1 MOL       0.0000
    166 C60         -0.2239     2.6053     4.2686 C         1 MOL       0.0000
    167 H46          5.0458     1.1931     2.5685 H         1 MOL       0.0000
    168 H47          3.9922     1.9534     1.3779 H         1 MOL       0.0000
    169 H48          1.8186     2.8309     2.1208 H         1 MOL       0.0000
    170 H49          4.7720    -0.4297     0.7782 H         1 MOL       0.0000
    171 H50          3.7597     0.2210     4.8051 H         1 MOL       0.0000
    172 H51         -0.3879     3.2274     5.1417 H         1 MOL       0.0000
    173 H52         -0.5702     3.1300     3.3768 H         1 MOL       0.0000
    174 H53          3.7258    -1.0488     2.1115 H         1 MOL       0.0000
    175 H54          1.3475     1.0579     5.9390 H         1 MOL       0.0000
    176 H55          3.0380    -0.2654     0.7280 H         1 MOL       0.0000
    177 H56         -0.8024     1.6583     4.2883 H         1 MOL       0.0000
    178 N10         -0.6476     0.5364     1.1510 N         1 MOL       0.0000
    179 C61         14.3445    -1.9639     3.2289 C         1 MOL       0.0000
    180 C62          9.6660    -6.5838    12.2963 C         1 MOL       0.0000
    181 O37          0.6487     3.0073     0.2872 O         1 MOL       0.0000
    182 O38         -5.0715    13.0359     2.5989 O         1 MOL       0.0000
    183 O39         -3.7288    -6.3243    12.0447 O         1 MOL       0.0000
    184 O40         -5.8549    12.9765     0.1373 O         1 MOL       0.0000
    185 F7          13.8415    -1.5285     4.4399 F         1 MOL       0.0000
    186 F8           8.2624    -5.9290    12.9242 F         1 MOL       0.0000
    187 F9           6.5498    12.4032     1.9447 F         1 MOL       0.0000
    188 F10          7.7763    11.2378     3.4652 F         1 MOL       0.0000
    189 F11         10.5133    -6.1564    10.7090 F         1 MOL       0.0000
    190 F12          3.2038     6.0125    11.9925 F         1 MOL       0.0000
    191 S3          -4.4504    -5.4287    13.0034 S         1 MOL       0.0000
    192 S4          -6.2254    13.3947     1.6859 S         1 MOL       0.0000
    193 Ti9         -7.4904    -4.8362    24.3414 Ti        1 MOL       0.0000
    194 Ti10         3.3400    -1.9550    14.9766 Ti        1 MOL       0.0000
    195 Ti11        -3.3938    -8.7724    22.5214 Ti        1 MOL       0.0000
    196 Ti12        -1.8826     0.3897    16.7484 Ti        1 MOL       0.0000
    197 Ti13        -2.8811     2.0680    14.8440 Ti        1 MOL       0.0000
    198 Ti14        -1.5056    -9.0268    24.4748 Ti        1 MOL       0.0000
    199 Ti15        -6.5412    -6.5721    22.4499 Ti        1 MOL       0.0000
    200 Ti16         1.3522    -1.6525    16.8240 Ti        1 MOL       0.0000
    201 H57         -6.9886    -0.9391    24.1219 H         1 MOL       0.0000
    202 H58          4.1488    -5.8611    15.2973 H         1 MOL       0.0000
    203 H59        -11.4503    -5.5929    23.9590 H         1 MOL       0.0000
    204 H60          6.7222     0.0493    15.1772 H         1 MOL       0.0000
    205 H61         -0.5299   -13.0613    24.0889 H         1 MOL       0.0000
    206 H62         -6.9397     1.4781    15.1661 H         1 MOL       0.0000
    207 H63         -7.0217    -6.6348    26.0659 H         1 MOL       0.0000
    208 H64          1.4645    -2.1977    13.2767 H         1 MOL       0.0000
    209 H65         -0.9956    -9.6939    18.9637 H         1 MOL       0.0000
    210 H66         -3.6060     2.2267    20.3673 H         1 MOL       0.0000
    211 H67        -10.6139    -3.1835    22.0940 H         1 MOL       0.0000
    212 H68          6.0948    -4.0393    17.2826 H         1 MOL       0.0000
    213 H69         -8.3127    -4.6309    18.7602 H         1 MOL       0.0000
    214 H70         -5.9812     3.8959    17.1972 H         1 MOL       0.0000
    215 H71         -2.4889     5.1708    15.6995 H         1 MOL       0.0000
    216 H72          3.9910    -7.8799    16.4998 H         1 MOL       0.0000
    217 H73          0.2101     0.0698    15.4098 H         1 MOL       0.0000
    218 H74         -4.4744    -6.9240    23.8150 H         1 MOL       0.0000
    219 H75          2.7292    -7.0919    22.8645 H         1 MOL       0.0000
    220 H76          1.2481    -7.5610    23.6118 H         1 MOL       0.0000
    221 H77          3.3033    -2.6583    21.7655 H         1 MOL       0.0000
    222 H78          2.7336    -2.2997    20.1470 H         1 MOL       0.0000
    223 H79          2.2404   -12.0468    22.6744 H         1 MOL       0.0000
    224 H80          0.9612   -10.9462    23.1318 H         1 MOL       0.0000
    225 C63          3.9181    -2.6963    17.8401 C         1 MOL       0.0000
    226 C64         -8.4510    -4.5749    21.4944 C         1 MOL       0.0000
    227 C65         -0.8132    -9.7831    21.5967 C         1 MOL       0.0000
    228 C66         -3.8187     2.3602    17.7078 C         1 MOL       0.0000
    229 C67          4.8141    -3.3006    18.8353 C         1 MOL       0.0000
    230 C68         -9.3829    -3.9498    20.5173 C         1 MOL       0.0000
    231 C69          0.1269   -10.3975    20.6495 C         1 MOL       0.0000
    232 C70         -4.7085     3.0070    18.7075 C         1 MOL       0.0000
    233 C71          4.5653    -3.2257    20.2417 C         1 MOL       0.0000
    234 C72         -9.1665    -4.0698    19.1293 C         1 MOL       0.0000
    235 C73          1.2564   -11.1578    21.1026 C         1 MOL       0.0000
    236 C74         -5.8032     3.7800    18.2626 C         1 MOL       0.0000
    237 C75         -4.4540     2.8362    20.0624 C         1 MOL       0.0000
    238 C76         -0.1208   -10.2653    19.2656 C         1 MOL       0.0000
    239 C77          5.9478    -3.9996    18.3596 C         1 MOL       0.0000
    240 C78        -10.4831    -3.2574    21.0160 C         1 MOL       0.0000
    241 C79          4.1298    -5.7820    13.1532 C         1 MOL       0.0000
    242 C80         -2.3399     6.0096    13.1782 C         1 MOL       0.0000
    243 C81          1.9793    -7.0849    26.1222 C         1 MOL       0.0000
    244 C82        -11.3790    -5.5425    26.1028 C         1 MOL       0.0000
    245 C83         -1.1358    -1.9535    18.7130 C         1 MOL       0.0000
    246 C84         -5.8919    -9.0479    20.6311 C         1 MOL       0.0000
    247 C85         -0.6410   -11.3932    26.2250 C         1 MOL       0.0000
    248 C86         -2.4326     4.5761    13.1407 C         1 MOL       0.0000
    249 C87          0.6815    -7.7017    26.1690 C         1 MOL       0.0000
    250 C88         -9.9767    -5.1281    26.1273 C         1 MOL       0.0000
    251 C89          4.1692    -6.4511    14.3829 C         1 MOL       0.0000
    252 C90         -6.9776    -0.3507    25.0358 C         1 MOL       0.0000
    253 C91         -8.7304     0.8129    14.1711 C         1 MOL       0.0000
    254 C92        -12.0118    -5.7722    24.8743 C         1 MOL       0.0000
    255 C93          2.6739    -6.8166    24.8888 C         1 MOL       0.0000
    256 C94         -7.4412     1.2931    14.2203 C         1 MOL       0.0000
    257 C95         -0.4883   -13.5885    25.0379 C         1 MOL       0.0000
    258 C96          4.1909    -7.8522    14.4645 C         1 MOL       0.0000
    259 N11          4.2460    -8.4511    15.7026 N         1 MOL       0.0000
    260 N12          2.0949    -6.9995    23.6498 N         1 MOL       0.0000
    261 N13          3.4845    -2.5794    20.7730 N         1 MOL       0.0000
    262 N14          1.5874   -11.3160    22.4200 N         1 MOL       0.0000
    263 O41          2.7418    -2.2912    18.2059 O         1 MOL       0.0000
    264 O42         -7.6820    -5.5257    21.0961 O         1 MOL       0.0000
    265 O43         -0.4318    -9.6587    22.8178 O         1 MOL       0.0000
    266 O44         -3.8845     2.7899    16.5082 O         1 MOL       0.0000
    267 O45         -3.0482     1.4030    18.0942 O         1 MOL       0.0000
    268 O46         -1.9837    -9.4147    21.1912 O         1 MOL       0.0000
    269 O47          4.3300    -2.6155    16.6284 O         1 MOL       0.0000
    270 O48         -8.4930    -4.1386    22.6941 O         1 MOL       0.0000
    271 O49          1.6574    -2.8704    15.6294 O         1 MOL       0.0000
    272 O50         -5.9888    -5.0118    23.1944 O         1 MOL       0.0000
    273 O51          2.5962    -0.5831    16.0793 O         1 MOL       0.0000
    274 O52         -7.7410    -6.7365    23.6871 O         1 MOL       0.0000
    275 O53         -3.1344    -9.9444    23.7818 O         1 MOL       0.0000
    276 O54         -1.3660     1.9510    16.0099 O         1 MOL       0.0000
    277 O55         -2.1805    -7.6829    23.3177 O         1 MOL       0.0000
    278 O56         -3.0722     0.1939    15.4925 O         1 MOL       0.0000
    279 O57          0.0853    -2.1334    18.3587 O         1 MOL       0.0000
    280 O58         -6.5496    -8.0129    21.0093 O         1 MOL       0.0000
    281 O59         -0.7632   -10.7986    25.0839 O         1 MOL       0.0000
    282 O60         -2.5157     3.8746    14.2359 O         1 MOL       0.0000
    283 O61          0.0389    -8.0105    25.0788 O         1 MOL       0.0000
    284 O62         -4.7517     2.0389    14.1758 O         1 MOL       0.0000
    285 O63         -4.7301    -9.3424    21.0889 O         1 MOL       0.0000
    286 O64         -1.8777    -1.0326    18.2196 O         1 MOL       0.0000
    287 O65          4.7771    -0.9359    14.2220 O         1 MOL       0.0000
    288 O66         -9.3772    -4.8963    25.0098 O         1 MOL       0.0000
    289 O67          3.9816    -3.6902    14.2514 O         1 MOL       0.0000
    290 O68         -7.1090    -3.1139    25.0911 O         1 MOL       0.0000
    291 O69         -0.1508    -0.4789    16.1304 O         1 MOL       0.0000
    292 O70         -4.8527    -7.4827    23.1115 O         1 MOL       0.0000
    293 O71          2.3033    -1.7041    13.1976 O         1 MOL       0.0000
    294 O72         -6.8993    -5.6680    26.1259 O         1 MOL       0.0000
    295 H81         -0.9332    -5.6019    21.6182 H         1 MOL       0.0000
    296 H82        -11.2376     3.5494    19.2018 H         1 MOL       0.0000
    297 H83         -0.1803     3.1472    18.6871 H         1 MOL       0.0000
    298 H84          0.0620    -4.0601    19.9023 H         1 MOL       0.0000
    299 H85         -4.5929    -3.3399    21.5222 H         1 MOL       0.0000
    300 H86          7.4935    -9.7207    20.1103 H         1 MOL       0.0000
    301 H87         -3.2609    -5.2360    22.3881 H         1 MOL       0.0000
    302 H88         -3.5919    -1.7940    19.8090 H         1 MOL       0.0000
    303 H89          1.1564     1.3790    17.5654 H         1 MOL       0.0000
    304 H90          3.6131     1.2851    17.8523 H         1 MOL       0.0000
    305 C97         -1.7120    -2.8465    19.7494 C         1 MOL       0.0000
    306 C98         -2.8210    -4.5599    21.6564 C         1 MOL       0.0000
    307 C99          1.6537     2.1127    18.1990 C         1 MOL       0.0000
    308 C100        -6.5492   -10.0215    19.7283 C         1 MOL       0.0000
    309 C101        -3.0256    -2.6340    20.2055 C         1 MOL       0.0000
    310 C102        -1.5069    -4.7669    21.2191 C         1 MOL       0.0000
    311 C103         0.9009     3.1211    18.8120 C         1 MOL       0.0000
    312 C104       -12.3164     3.5694    19.0641 C         1 MOL       0.0000
    313 C105         3.0417     2.0586    18.3627 C         1 MOL       0.0000
    314 C106         8.0574   -10.5188    19.6338 C         1 MOL       0.0000
    315 C107        -0.9523    -3.9120    20.2660 C         1 MOL       0.0000
    316 C108        -3.5780    -3.4923    21.1578 C         1 MOL       0.0000
    317 N15          0.7571     3.6644    14.3601 N         1 MOL       0.0000
    318 N16         -2.5303    -4.3264    25.9727 N         1 MOL       0.0000
    319 C109         0.6080     4.3438    13.1441 C         1 MOL       0.0000
    320 C110        -3.2279    -3.3346    25.3083 C         1 MOL       0.0000
    321 C111        -0.2377    -4.3562    24.9665 C         1 MOL       0.0000
    322 C112         0.2852     4.1853    15.6823 C         1 MOL       0.0000
    323 C113         1.7433     2.7545    14.1811 C         1 MOL       0.0000
    324 C114        -1.4678    -5.1614    25.3746 C         1 MOL       0.0000
    325 H91         -4.5517    -1.7766    26.1535 H         1 MOL       0.0000
    326 H92         -3.0990    -3.1431    24.2465 H         1 MOL       0.0000
    327 H93         -0.4945    -3.5606    24.2535 H         1 MOL       0.0000
    328 H94         -0.0934     5.2041    15.5350 H         1 MOL       0.0000
    329 H95          0.2385    -3.8789    25.8305 H         1 MOL       0.0000
    330 H96         -0.4525     3.5299    16.1081 H         1 MOL       0.0000
    331 H97          0.4856    -5.0236    24.4796 H         1 MOL       0.0000
    332 H98         -1.9116    -5.6838    24.5173 H         1 MOL       0.0000
    333 H99          1.1228     4.2531    16.3792 H         1 MOL       0.0000
    334 H100         2.2671     2.2193    14.9623 H         1 MOL       0.0000
    335 H101        -1.2331    -5.9236    26.1245 H         1 MOL       0.0000
    336 N17          8.7581    -7.5520    13.3198 N         1 MOL       0.0000
    337 C115        -4.2867    -6.6128    14.8089 C         1 MOL       0.0000
    338 C116         5.0804   -12.8432    24.0718 C         1 MOL       0.0000
    339 O73          9.1622    -7.5784    15.7967 O         1 MOL       0.0000
    340 O74          3.8634     4.6470    14.3982 O         1 MOL       0.0000
    341 O75         -3.3819    -0.4037    24.0880 O         1 MOL       0.0000
    342 O76         -0.7803    -0.9660    23.4064 O         1 MOL       0.0000
    343 F13         -4.6577    -5.1201    15.2182 F         1 MOL       0.0000
    344 F14          5.7565   -11.4139    24.8970 F         1 MOL       0.0000
    345 F15         -2.8562    -5.9591    14.0295 F         1 MOL       0.0000
    346 F16         -4.7712    -7.1039    16.7191 F         1 MOL       0.0000
    347 F17          3.9426   -12.0345    23.7586 F         1 MOL       0.0000
    348 F18         -1.9396     1.1792    22.1449 F         1 MOL       0.0000
    349 S5           3.1646     6.2394    14.4434 S         1 MOL       0.0000
    350 S6          -2.0474    -0.1751    24.5573 S         1 MOL       0.0000
    351 N18         -1.5457    -5.5722    16.2839 N         1 MOL       0.0000
    352 N19         -3.4076    -4.8308    17.2373 N         1 MOL       0.0000
    353 C117        -0.5791    -5.9360    15.1978 C         1 MOL       0.0000
    354 C118        -2.6150    -4.7760    16.1356 C         1 MOL       0.0000
    355 C119        -1.6597    -6.2072    17.5212 C         1 MOL       0.0000
    356 C120        -0.7447    -7.2994    14.4959 C         1 MOL       0.0000
    357 C121        -2.8164    -5.7576    18.0964 C         1 MOL       0.0000
    358 C122        -4.8589    -4.4607    17.3636 C         1 MOL       0.0000
    359 H102         0.4108    -5.8729    15.6635 H         1 MOL       0.0000
    360 H103        -0.6428    -5.1126    14.4729 H         1 MOL       0.0000
    361 H104        -2.8164    -4.2351    15.2158 H         1 MOL       0.0000
    362 H105         0.1370    -7.4957    13.8732 H         1 MOL       0.0000
    363 H106        -0.8753    -6.8450    17.9001 H         1 MOL       0.0000
    364 H107        -5.0229    -3.8386    18.2367 H         1 MOL       0.0000
    365 H108        -5.2052    -3.9360    16.4718 H         1 MOL       0.0000
    366 H109        -0.9092    -8.1148    15.2065 H         1 MOL       0.0000
    367 H110        -3.2875    -6.0081    19.0340 H         1 MOL       0.0000
    368 H111        -1.5970    -7.3314    13.8230 H         1 MOL       0.0000
    369 H112        -5.4374    -5.4077    17.3833 H         1 MOL       0.0000
    370 N20         -5.2826    -6.5296    14.2460 N         1 MOL       0.0000
    371 C123         9.7095    -9.0299    16.3239 C         1 MOL       0.0000
    372 C124         5.0310   -13.6498    25.3913 C         1 MOL       0.0000
    373 O77         -3.9863    -4.0587    13.3822 O         1 MOL       0.0000
    374 O78         -9.7065     5.9699    15.6939 O         1 MOL       0.0000
    375 O79         -8.3638   -13.3903    25.1397 O         1 MOL       0.0000
    376 O80        -10.4899     5.9105    13.2323 O         1 MOL       0.0000
    377 F19          9.2065    -8.5945    17.5349 F         1 MOL       0.0000
    378 F20          3.6274   -12.9950    26.0192 F         1 MOL       0.0000
    379 F21          1.9148     5.3372    15.0397 F         1 MOL       0.0000
    380 F22          3.1413     4.1718    16.5602 F         1 MOL       0.0000
    381 F23          5.8783   -13.2224    23.8040 F         1 MOL       0.0000
    382 F24         -1.4312    -1.0535    25.0875 F         1 MOL       0.0000
    383 S7          -9.0854   -12.4947    26.0984 S         1 MOL       0.0000
    384 S8         -10.8604     6.3287    14.7809 S         1 MOL       0.0000
    385 Ti17        -9.3724    16.8428    11.1894 Ti        1 MOL       0.0000
    386 Ti18         1.4580    19.7240     1.8246 Ti        1 MOL       0.0000
    387 Ti19        -5.2758    12.9066     9.3694 Ti        1 MOL       0.0000
    388 Ti20        -3.7646    22.0687     3.5964 Ti        1 MOL       0.0000
    389 Ti21        -4.7631    23.7470     1.6920 Ti        1 MOL       0.0000
    390 Ti22        -3.3876    12.6522    11.3228 Ti        1 MOL       0.0000
    391 Ti23        -8.4232    15.1069     9.2979 Ti        1 MOL       0.0000
    392 Ti24        -0.5298    20.0265     3.6721 Ti        1 MOL       0.0000
    393 H113        -8.8706    20.7399    10.9699 H         1 MOL       0.0000
    394 H114         2.2668    15.8179     2.1453 H         1 MOL       0.0000
    395 H115       -13.3323    16.0861    10.8070 H         1 MOL       0.0000
    396 H116         4.8402    21.7283     2.0252 H         1 MOL       0.0000
    397 H117        -2.4119     8.6177    10.9369 H         1 MOL       0.0000
    398 H118        -8.8217    23.1571     2.0141 H         1 MOL       0.0000
    399 H119        -8.9037    15.0442    12.9139 H         1 MOL       0.0000
    400 H120        -0.4175    19.4813     0.1247 H         1 MOL       0.0000
    401 H121        -2.8776    11.9851     5.8117 H         1 MOL       0.0000
    402 H122        -5.4880    23.9057     7.2153 H         1 MOL       0.0000
    403 H123       -12.4959    18.4955     8.9420 H         1 MOL       0.0000
    404 H124         4.2128    17.6396     4.1306 H         1 MOL       0.0000
    405 H125       -10.1948    17.0481     5.6082 H         1 MOL       0.0000
    406 H126        -7.8632    25.5749     4.0452 H         1 MOL       0.0000
    407 H127        -4.3709    26.8498     2.5475 H         1 MOL       0.0000
    408 H128         2.1090    13.7991     3.3478 H         1 MOL       0.0000
    409 H129        -1.6719    21.7488     2.2578 H         1 MOL       0.0000
    410 H130        -6.3565    14.7550    10.6630 H         1 MOL       0.0000
    411 H131         0.8472    14.5871     9.7125 H         1 MOL       0.0000
    412 H132        -0.6339    14.1180    10.4598 H         1 MOL       0.0000
    413 H133         1.4213    19.0207     8.6136 H         1 MOL       0.0000
    414 H134         0.8516    19.3793     6.9950 H         1 MOL       0.0000
    415 H135         0.3584     9.6322     9.5224 H         1 MOL       0.0000
    416 H136        -0.9208    10.7328     9.9798 H         1 MOL       0.0000
    417 C125         2.0361    18.9827     4.6881 C         1 MOL       0.0000
    418 C126       -10.3330    17.1042     8.3424 C         1 MOL       0.0000
    419 C127        -2.6952    11.8959     8.4447 C         1 MOL       0.0000
    420 C128        -5.7007    24.0392     4.5557 C         1 MOL       0.0000
    421 C129         2.9321    18.3784     5.6833 C         1 MOL       0.0000
    422 C130       -11.2649    17.7292     7.3653 C         1 MOL       0.0000
    423 C131        -1.7550    11.2815     7.4975 C         1 MOL       0.0000
    424 C132        -6.5905    24.6860     5.5555 C         1 MOL       0.0000
    425 C133         2.6833    18.4533     7.0897 C         1 MOL       0.0000
    426 C134       -11.0485    17.6092     5.9773 C         1 MOL       0.0000
    427 C135        -0.6256    10.5212     7.9506 C         1 MOL       0.0000
    428 C136        -7.6852    25.4590     5.1106 C         1 MOL       0.0000
    429 C137        -6.3360    24.5152     6.9104 C         1 MOL       0.0000
    430 C138        -2.0028    11.4136     6.1136 C         1 MOL       0.0000
    431 C139         4.0658    17.6794     5.2076 C         1 MOL       0.0000
    432 C140       -12.3651    18.4216     7.8640 C         1 MOL       0.0000
    433 C141         2.2478    15.8970     0.0012 C         1 MOL       0.0000
    434 C142        -4.2219    27.6886     0.0262 C         1 MOL       0.0000
    435 C143         0.0973    14.5941    12.9702 C         1 MOL       0.0000
    436 C144       -13.2610    16.1365    12.9508 C         1 MOL       0.0000
    437 C145        -3.0178    19.7255     5.5610 C         1 MOL       0.0000
    438 C146        -7.7739    12.6311     7.4791 C         1 MOL       0.0000
    439 C147        -2.5230    10.2858    13.0730 C         1 MOL       0.0000
    440 C148        -4.3146    26.2551    -0.0113 C         1 MOL       0.0000
    441 C149        -1.2006    13.9773    13.0170 C         1 MOL       0.0000
    442 C150       -11.8587    16.5509    12.9753 C         1 MOL       0.0000
    443 C151         2.2872    15.2279     1.2309 C         1 MOL       0.0000
    444 C152        -8.8596    21.3283    11.8838 C         1 MOL       0.0000
    445 C153       -10.6124    22.4919     1.0191 C         1 MOL       0.0000
    446 C154       -13.8938    15.9068    11.7223 C         1 MOL       0.0000
    447 C155         0.7919    14.8624    11.7368 C         1 MOL       0.0000
    448 C156        -9.3232    22.9721     1.0683 C         1 MOL       0.0000
    449 C157        -2.3703     8.0905    11.8859 C         1 MOL       0.0000
    450 C158         2.3089    13.8268     1.3125 C         1 MOL       0.0000
    451 N21          2.3640    13.2279     2.5506 N         1 MOL       0.0000
    452 N22          0.2129    14.6795    10.4978 N         1 MOL       0.0000
    453 N23          1.6025    19.0996     7.6210 N         1 MOL       0.0000
    454 N24         -0.2946    10.3630     9.2680 N         1 MOL       0.0000
    455 O81          0.8598    19.3878     5.0539 O         1 MOL       0.0000
    456 O82         -9.5640    16.1533     7.9441 O         1 MOL       0.0000
    457 O83         -2.3138    12.0203     9.6658 O         1 MOL       0.0000
    458 O84         -5.7665    24.4689     3.3561 O         1 MOL       0.0000
    459 O85         -4.9302    23.0820     4.9422 O         1 MOL       0.0000
    460 O86         -3.8657    12.2643     8.0392 O         1 MOL       0.0000
    461 O87          2.4480    19.0635     3.4764 O         1 MOL       0.0000
    462 O88        -10.3750    17.5404     9.5421 O         1 MOL       0.0000
    463 O89         -0.2246    18.8086     2.4774 O         1 MOL       0.0000
    464 O90         -7.8708    16.6672    10.0424 O         1 MOL       0.0000
    465 O91          0.7142    21.0959     2.9273 O         1 MOL       0.0000
    466 O92         -9.6230    14.9425    10.5351 O         1 MOL       0.0000
    467 O93         -5.0164    11.7346    10.6298 O         1 MOL       0.0000
    468 O94         -3.2480    23.6300     2.8579 O         1 MOL       0.0000
    469 O95         -4.0625    13.9961    10.1657 O         1 MOL       0.0000
    470 O96         -4.9542    21.8729     2.3405 O         1 MOL       0.0000
    471 O97         -1.7967    19.5457     5.2067 O         1 MOL       0.0000
    472 O98         -8.4316    13.6661     7.8573 O         1 MOL       0.0000
    473 O99         -2.6452    10.8804    11.9319 O         1 MOL       0.0000
    474 O100        -4.3977    25.5536     1.0839 O         1 MOL       0.0000
    475 O101        -1.8431    13.6685    11.9268 O         1 MOL       0.0000
    476 O102        -6.6337    23.7179     1.0238 O         1 MOL       0.0000
    477 O103        -6.6121    12.3366     7.9369 O         1 MOL       0.0000
    478 O104        -3.7597    20.6464     5.0676 O         1 MOL       0.0000
    479 O105         2.8951    20.7431     1.0700 O         1 MOL       0.0000
    480 O106       -11.2592    16.7827    11.8578 O         1 MOL       0.0000
    481 O107         2.0995    17.9888     1.0994 O         1 MOL       0.0000
    482 O108        -8.9910    18.5650    11.9391 O         1 MOL       0.0000
    483 O109        -2.0328    21.2001     2.9784 O         1 MOL       0.0000
    484 O110        -6.7347    14.1963     9.9595 O         1 MOL       0.0000
    485 O111         0.4213    19.9749     0.0456 O         1 MOL       0.0000
    486 O112        -8.7813    16.0110    12.9739 O         1 MOL       0.0000
    487 H137        -2.8152    16.0771     8.4662 H         1 MOL       0.0000
    488 H138       -13.1196    25.2284     6.0498 H         1 MOL       0.0000
    489 H139        -2.0623    24.8262     5.5351 H         1 MOL       0.0000
    490 H140        -1.8200    17.6189     6.7503 H         1 MOL       0.0000
    491 H141        -6.4749    18.3391     8.3702 H         1 MOL       0.0000
    492 H142         5.6115    11.9583     6.9583 H         1 MOL       0.0000
    493 H143        -5.1429    16.4430     9.2361 H         1 MOL       0.0000
    494 H144        -5.4739    19.8850     6.6570 H         1 MOL       0.0000
    495 H145        -0.7256    23.0580     4.4134 H         1 MOL       0.0000
    496 H146         1.7311    22.9641     4.7003 H         1 MOL       0.0000
    497 C159        -3.5940    18.8325     6.5974 C         1 MOL       0.0000
    498 C160        -4.7030    17.1191     8.5044 C         1 MOL       0.0000
    499 C161        -0.2283    23.7917     5.0470 C         1 MOL       0.0000
    500 C162        -8.4312    11.6575     6.5763 C         1 MOL       0.0000
    501 C163        -4.9076    19.0450     7.0535 C         1 MOL       0.0000
    502 C164        -3.3889    16.9121     8.0671 C         1 MOL       0.0000
    503 C165        -0.9811    24.8001     5.6600 C         1 MOL       0.0000
    504 C166       -14.1984    25.2484     5.9121 C         1 MOL       0.0000
    505 C167         1.1597    23.7376     5.2107 C         1 MOL       0.0000
    506 C168         6.1754    11.1602     6.4818 C         1 MOL       0.0000
    507 C169        -2.8343    17.7670     7.1140 C         1 MOL       0.0000
    508 C170        -5.4600    18.1867     8.0058 C         1 MOL       0.0000
    509 N25         -1.1249    25.3434     1.2081 N         1 MOL       0.0000
    510 N26         -4.4123    17.3526    12.8207 N         1 MOL       0.0000
    511 C171        -1.2740    26.0228    -0.0079 C         1 MOL       0.0000
    512 C172        -5.1099    18.3444    12.1563 C         1 MOL       0.0000
    513 C173        -2.1197    17.3228    11.8145 C         1 MOL       0.0000
    514 C174        -1.5968    25.8643     2.5303 C         1 MOL       0.0000
    515 C175        -0.1387    24.4335     1.0291 C         1 MOL       0.0000
    516 C176        -3.3498    16.5176    12.2226 C         1 MOL       0.0000
    517 H147        -6.4337    19.9024    13.0015 H         1 MOL       0.0000
    518 H148        -4.9810    18.5359    11.0945 H         1 MOL       0.0000
    519 H149        -2.3765    18.1184    11.1015 H         1 MOL       0.0000
    520 H150        -1.9754    26.8831     2.3830 H         1 MOL       0.0000
    521 H151        -1.6435    17.8001    12.6785 H         1 MOL       0.0000
    522 H152        -2.3345    25.2089     2.9561 H         1 MOL       0.0000
    523 H153        -1.3964    16.6554    11.3276 H         1 MOL       0.0000
    524 H154        -3.7936    15.9952    11.3653 H         1 MOL       0.0000
    525 H155        -0.7592    25.9321     3.2272 H         1 MOL       0.0000
    526 H156         0.3851    23.8983     1.8103 H         1 MOL       0.0000
    527 H157        -3.1151    15.7554    12.9725 H         1 MOL       0.0000
    528 N27          6.8761    14.1270     0.1678 N         1 MOL       0.0000
    529 C177        -6.1687    15.0662     1.6569 C         1 MOL       0.0000
    530 C178         3.1984     8.8358    10.9198 C         1 MOL       0.0000
    531 O113         7.2802    14.1006     2.6447 O         1 MOL       0.0000
    532 O114         1.9814    26.3260     1.2462 O         1 MOL       0.0000
    533 O115        -5.2639    21.2753    10.9360 O         1 MOL       0.0000
    534 O116        -2.6623    20.7130    10.2544 O         1 MOL       0.0000
    535 F25         -6.5397    16.5589     2.0662 F         1 MOL       0.0000
    536 F26          3.8745    10.2651    11.7450 F         1 MOL       0.0000
    537 F27         -4.7382    15.7199     0.8775 F         1 MOL       0.0000
    538 F28         -6.6532    14.5751     3.5671 F         1 MOL       0.0000
    539 F29          2.0606     9.6445    10.6066 F         1 MOL       0.0000
    540 F30         -3.8216    22.8582     8.9929 F         1 MOL       0.0000
    541 S9           1.2826    27.9184     1.2914 S         1 MOL       0.0000
    542 S10         -3.9294    21.5039    11.4053 S         1 MOL       0.0000
    543 N28         -3.4277    16.1068     3.1319 N         1 MOL       0.0000
    544 N29         -5.2896    16.8482     4.0853 N         1 MOL       0.0000
    545 C179        -2.4611    15.7430     2.0458 C         1 MOL       0.0000
    546 C180        -4.4970    16.9030     2.9836 C         1 MOL       0.0000
    547 C181        -3.5417    15.4718     4.3692 C         1 MOL       0.0000
    548 C182        -2.6267    14.3796     1.3439 C         1 MOL       0.0000
    549 C183        -4.6984    15.9214     4.9444 C         1 MOL       0.0000
    550 C184        -6.7409    17.2183     4.2116 C         1 MOL       0.0000
    551 H158        -1.4712    15.8061     2.5115 H         1 MOL       0.0000
    552 H159        -2.5248    16.5664     1.3209 H         1 MOL       0.0000
    553 H160        -4.6984    17.4439     2.0638 H         1 MOL       0.0000
    554 H161        -1.7450    14.1833     0.7212 H         1 MOL       0.0000
    555 H162        -2.7573    14.8340     4.7481 H         1 MOL       0.0000
    556 H163        -6.9049    17.8404     5.0847 H         1 MOL       0.0000
    557 H164        -7.0872    17.7430     3.3198 H         1 MOL       0.0000
    558 H165        -2.7912    13.5642     2.0545 H         1 MOL       0.0000
    559 H166        -5.1695    15.6709     5.8820 H         1 MOL       0.0000
    560 H167        -3.4790    14.3476     0.6710 H         1 MOL       0.0000
    561 H168        -7.3194    16.2713     4.2313 H         1 MOL       0.0000
    562 N30         -7.1646    15.1494     1.0940 N         1 MOL       0.0000
    563 C185         7.8275    12.6491     3.1719 C         1 MOL       0.0000
    564 C186         3.1490     8.0292    12.2393 C         1 MOL       0.0000
    565 O117        -5.8683    17.6203     0.2302 O         1 MOL       0.0000
    566 O118       -11.5885    27.6489     2.5419 O         1 MOL       0.0000
    567 O119       -10.2458     8.2887    11.9877 O         1 MOL       0.0000
    568 O120       -12.3719    27.5895     0.0803 O         1 MOL       0.0000
    569 F31          7.3245    13.0845     4.3829 F         1 MOL       0.0000
    570 F32          1.7454     8.6840    12.8672 F         1 MOL       0.0000
    571 F33          0.0328    27.0162     1.8877 F         1 MOL       0.0000
    572 F34          1.2593    25.8508     3.4082 F         1 MOL       0.0000
    573 F35          3.9963     8.4566    10.6520 F         1 MOL       0.0000
    574 F36         -3.3132    20.6255    11.9355 F         1 MOL       0.0000
    575 S11        -10.9674     9.1843    12.9464 S         1 MOL       0.0000
    576 S12        -12.7424    28.0077     1.6289 S         1 MOL       0.0000
    577 Ti25       -14.0074     9.7768    24.2844 Ti        1 MOL       0.0000
    578 Ti26        -3.1770    12.6580    14.9196 Ti        1 MOL       0.0000
    579 Ti27        -9.9108     5.8406    22.4644 Ti        1 MOL       0.0000
    580 Ti28        -8.3996    15.0027    16.6914 Ti        1 MOL       0.0000
    581 Ti29        -9.3981    16.6810    14.7870 Ti        1 MOL       0.0000
    582 Ti30        -8.0226     5.5862    24.4178 Ti        1 MOL       0.0000
    583 Ti31       -13.0582     8.0409    22.3929 Ti        1 MOL       0.0000
    584 Ti32        -5.1648    12.9605    16.7671 Ti        1 MOL       0.0000
    585 H169       -13.5056    13.6739    24.0649 H         1 MOL       0.0000
    586 H170        -2.3682     8.7519    15.2403 H         1 MOL       0.0000
    587 H171       -17.9673     9.0201    23.9020 H         1 MOL       0.0000
    588 H172         0.2052    14.6623    15.1202 H         1 MOL       0.0000
    589 H173        -7.0469     1.5517    24.0319 H         1 MOL       0.0000
    590 H174       -13.4567    16.0911    15.1091 H         1 MOL       0.0000
    591 H175       -13.5387     7.9782    26.0089 H         1 MOL       0.0000
    592 H176        -5.0525    12.4153    13.2196 H         1 MOL       0.0000
    593 H177        -7.5126     4.9191    18.9067 H         1 MOL       0.0000
    594 H178       -10.1230    16.8397    20.3103 H         1 MOL       0.0000
    595 H179       -17.1309    11.4295    22.0370 H         1 MOL       0.0000
    596 H180        -0.4222    10.5736    17.2256 H         1 MOL       0.0000
    597 H181       -14.8298     9.9821    18.7032 H         1 MOL       0.0000
    598 H182       -12.4982    18.5089    17.1402 H         1 MOL       0.0000
    599 H183        -9.0059    19.7838    15.6425 H         1 MOL       0.0000
    600 H184        -2.5260     6.7331    16.4428 H         1 MOL       0.0000
    601 H185        -6.3069    14.6828    15.3528 H         1 MOL       0.0000
    602 H186       -10.9915     7.6890    23.7580 H         1 MOL       0.0000
    603 H187        -3.7878     7.5211    22.8075 H         1 MOL       0.0000
    604 H188        -5.2689     7.0520    23.5548 H         1 MOL       0.0000
    605 H189        -3.2137    11.9547    21.7085 H         1 MOL       0.0000
    606 H190        -3.7834    12.3133    20.0900 H         1 MOL       0.0000
    607 H191        -4.2766     2.5662    22.6174 H         1 MOL       0.0000
    608 H192        -5.5558     3.6668    23.0748 H         1 MOL       0.0000
    609 C187        -2.5989    11.9167    17.7831 C         1 MOL       0.0000
    610 C188       -14.9680    10.0381    21.4374 C         1 MOL       0.0000
    611 C189        -7.3302     4.8299    21.5397 C         1 MOL       0.0000
    612 C190       -10.3357    16.9732    17.6507 C         1 MOL       0.0000
    613 C191        -1.7029    11.3124    18.7783 C         1 MOL       0.0000
    614 C192       -15.8999    10.6632    20.4603 C         1 MOL       0.0000
    615 C193        -6.3900     4.2155    20.5925 C         1 MOL       0.0000
    616 C194       -11.2255    17.6200    18.6505 C         1 MOL       0.0000
    617 C195        -1.9517    11.3873    20.1847 C         1 MOL       0.0000
    618 C196       -15.6835    10.5432    19.0723 C         1 MOL       0.0000
    619 C197        -5.2606     3.4552    21.0456 C         1 MOL       0.0000
    620 C198       -12.3202    18.3930    18.2056 C         1 MOL       0.0000
    621 C199       -10.9710    17.4492    20.0054 C         1 MOL       0.0000
    622 C200        -6.6378     4.3476    19.2086 C         1 MOL       0.0000
    623 C201        -0.5692    10.6134    18.3026 C         1 MOL       0.0000
    624 C202       -17.0001    11.3556    20.9590 C         1 MOL       0.0000
    625 C203        -2.3872     8.8310    13.0962 C         1 MOL       0.0000
    626 C204        -8.8569    20.6226    13.1212 C         1 MOL       0.0000
    627 C205        -4.5377     7.5281    26.0652 C         1 MOL       0.0000
    628 C206       -17.8960     9.0705    26.0458 C         1 MOL       0.0000
    629 C207        -7.6528    12.6595    18.6560 C         1 MOL       0.0000
    630 C208       -12.4089     5.5651    20.5741 C         1 MOL       0.0000
    631 C209        -7.1580     3.2199    26.1680 C         1 MOL       0.0000
    632 C210        -8.9496    19.1891    13.0837 C         1 MOL       0.0000
    633 C211        -5.8355     6.9113    26.1120 C         1 MOL       0.0000
    634 C212       -16.4937     9.4849    26.0703 C         1 MOL       0.0000
    635 C213        -2.3478     8.1619    14.3259 C         1 MOL       0.0000
    636 C214       -13.4946    14.2623    24.9788 C         1 MOL       0.0000
    637 C215       -15.2474    15.4259    14.1141 C         1 MOL       0.0000
    638 C216       -18.5288     8.8408    24.8173 C         1 MOL       0.0000
    639 C217        -3.8431     7.7964    24.8318 C         1 MOL       0.0000
    640 C218       -13.9582    15.9061    14.1633 C         1 MOL       0.0000
    641 C219        -7.0053     1.0245    24.9809 C         1 MOL       0.0000
    642 C220        -2.3261     6.7608    14.4075 C         1 MOL       0.0000
    643 N31         -2.2710     6.1619    15.6456 N         1 MOL       0.0000
    644 N32         -4.4221     7.6135    23.5928 N         1 MOL       0.0000
    645 N33         -3.0325    12.0336    20.7160 N         1 MOL       0.0000
    646 N34         -4.9296     3.2970    22.3630 N         1 MOL       0.0000
    647 O121        -3.7752    12.3218    18.1489 O         1 MOL       0.0000
    648 O122       -14.1990     9.0873    21.0391 O         1 MOL       0.0000
    649 O123        -6.9488     4.9543    22.7608 O         1 MOL       0.0000
    650 O124       -10.4015    17.4029    16.4512 O         1 MOL       0.0000
    651 O125        -9.5652    16.0160    18.0372 O         1 MOL       0.0000
    652 O126        -8.5007     5.1983    21.1342 O         1 MOL       0.0000
    653 O127        -2.1870    11.9975    16.5714 O         1 MOL       0.0000
    654 O128       -15.0100    10.4744    22.6371 O         1 MOL       0.0000
    655 O129        -4.8596    11.7426    15.5724 O         1 MOL       0.0000
    656 O130       -12.5058     9.6012    23.1374 O         1 MOL       0.0000
    657 O131        -3.9208    14.0299    16.0223 O         1 MOL       0.0000
    658 O132       -14.2580     7.8765    23.6301 O         1 MOL       0.0000
    659 O133        -9.6515     4.6686    23.7248 O         1 MOL       0.0000
    660 O134        -7.8830    16.5640    15.9529 O         1 MOL       0.0000
    661 O135        -8.6975     6.9301    23.2607 O         1 MOL       0.0000
    662 O136        -9.5892    14.8069    15.4355 O         1 MOL       0.0000
    663 O137        -6.4317    12.4797    18.3017 O         1 MOL       0.0000
    664 O138       -13.0666     6.6001    20.9523 O         1 MOL       0.0000
    665 O139        -7.2802     3.8144    25.0269 O         1 MOL       0.0000
    666 O140        -9.0327    18.4876    14.1789 O         1 MOL       0.0000
    667 O141        -6.4781     6.6025    25.0218 O         1 MOL       0.0000
    668 O142       -11.2687    16.6519    14.1188 O         1 MOL       0.0000
    669 O143       -11.2471     5.2706    21.0319 O         1 MOL       0.0000
    670 O144        -8.3947    13.5804    18.1626 O         1 MOL       0.0000
    671 O145        -1.7399    13.6771    14.1650 O         1 MOL       0.0000
    672 O146       -15.8942     9.7167    24.9528 O         1 MOL       0.0000
    673 O147        -2.5355    10.9228    14.1944 O         1 MOL       0.0000
    674 O148       -13.6260    11.4990    25.0341 O         1 MOL       0.0000
    675 O149        -6.6678    14.1341    16.0734 O         1 MOL       0.0000
    676 O150       -11.3697     7.1303    23.0545 O         1 MOL       0.0000
    677 O151        -4.2137    12.9089    13.1406 O         1 MOL       0.0000
    678 O152       -13.4163     8.9450    26.0689 O         1 MOL       0.0000
    679 H193        -7.4502     9.0111    21.5612 H         1 MOL       0.0000
    680 H194       -17.7546    18.1624    19.1448 H         1 MOL       0.0000
    681 H195        -6.6973    17.7602    18.6301 H         1 MOL       0.0000
    682 H196        -6.4550    10.5529    19.8453 H         1 MOL       0.0000
    683 H197       -11.1099    11.2731    21.4652 H         1 MOL       0.0000
    684 H198         0.9765     4.8923    20.0533 H         1 MOL       0.0000
    685 H199        -9.7779     9.3770    22.3311 H         1 MOL       0.0000
    686 H200       -10.1089    12.8190    19.7520 H         1 MOL       0.0000
    687 H201        -5.3606    15.9920    17.5084 H         1 MOL       0.0000
    688 H202        -2.9039    15.8981    17.7953 H         1 MOL       0.0000
    689 C221        -8.2290    11.7665    19.6924 C         1 MOL       0.0000
    690 C222        -9.3380    10.0531    21.5994 C         1 MOL       0.0000
    691 C223        -4.8633    16.7257    18.1420 C         1 MOL       0.0000
    692 C224       -13.0662     4.5915    19.6713 C         1 MOL       0.0000
    693 C225        -9.5426    11.9790    20.1485 C         1 MOL       0.0000
    694 C226        -8.0239     9.8461    21.1621 C         1 MOL       0.0000
    695 C227        -5.6161    17.7341    18.7550 C         1 MOL       0.0000
    696 C228       -18.8334    18.1824    19.0071 C         1 MOL       0.0000
    697 C229        -3.4753    16.6716    18.3057 C         1 MOL       0.0000
    698 C230         1.5404     4.0942    19.5768 C         1 MOL       0.0000
    699 C231        -7.4693    10.7010    20.2090 C         1 MOL       0.0000
    700 C232       -10.0950    11.1207    21.1008 C         1 MOL       0.0000
    701 N35         -5.7599    18.2774    14.3031 N         1 MOL       0.0000
    702 N36         -9.0473    10.2866    25.9157 N         1 MOL       0.0000
    703 C233        -5.9090    18.9568    13.0871 C         1 MOL       0.0000
    704 C234        -9.7449    11.2784    25.2513 C         1 MOL       0.0000
    705 C235        -6.7547    10.2568    24.9095 C         1 MOL       0.0000
    706 C236        -6.2318    18.7983    15.6253 C         1 MOL       0.0000
    707 C237        -4.7737    17.3675    14.1241 C         1 MOL       0.0000
    708 C238        -7.9848     9.4516    25.3176 C         1 MOL       0.0000
    709 H203       -11.0687    12.8364    26.0965 H         1 MOL       0.0000
    710 H204        -9.6160    11.4699    24.1895 H         1 MOL       0.0000
    711 H205        -7.0115    11.0524    24.1965 H         1 MOL       0.0000
    712 H206        -6.6104    19.8171    15.4780 H         1 MOL       0.0000
    713 H207        -6.2785    10.7341    25.7735 H         1 MOL       0.0000
    714 H208        -6.9695    18.1429    16.0511 H         1 MOL       0.0000
    715 H209        -6.0314     9.5894    24.4226 H         1 MOL       0.0000
    716 H210        -8.4286     8.9292    24.4603 H         1 MOL       0.0000
    717 H211        -5.3942    18.8661    16.3222 H         1 MOL       0.0000
    718 H212        -4.2499    16.8323    14.9053 H         1 MOL       0.0000
    719 H213        -7.7501     8.6894    26.0675 H         1 MOL       0.0000
    720 N37          2.2411     7.0610    13.2628 N         1 MOL       0.0000
    721 C239       -10.8037     8.0002    14.7519 C         1 MOL       0.0000
    722 C240        -1.4366     1.7698    24.0148 C         1 MOL       0.0000
    723 O153         2.6452     7.0346    15.7397 O         1 MOL       0.0000
    724 O154        -2.6536    19.2600    14.3412 O         1 MOL       0.0000
    725 O155        -9.8989    14.2093    24.0310 O         1 MOL       0.0000
    726 O156        -7.2973    13.6470    23.3494 O         1 MOL       0.0000
    727 F37        -11.1747     9.4929    15.1612 F         1 MOL       0.0000
    728 F38         -0.7605     3.1991    24.8400 F         1 MOL       0.0000
    729 F39         -9.3732     8.6539    13.9725 F         1 MOL       0.0000
    730 F40        -11.2882     7.5091    16.6621 F         1 MOL       0.0000
    731 F41         -2.5744     2.5785    23.7016 F         1 MOL       0.0000
    732 F42         -8.4566    15.7922    22.0879 F         1 MOL       0.0000
    733 S13         -3.3524    20.8524    14.3864 S         1 MOL       0.0000
    734 S14         -8.5644    14.4379    24.5003 S         1 MOL       0.0000
    735 N38         -8.0627     9.0408    16.2269 N         1 MOL       0.0000
    736 N39         -9.9246     9.7822    17.1803 N         1 MOL       0.0000
    737 C241        -7.0961     8.6770    15.1408 C         1 MOL       0.0000
    738 C242        -9.1320     9.8370    16.0786 C         1 MOL       0.0000
    739 C243        -8.1767     8.4058    17.4642 C         1 MOL       0.0000
    740 C244        -7.2617     7.3136    14.4389 C         1 MOL       0.0000
    741 C245        -9.3334     8.8554    18.0394 C         1 MOL       0.0000
    742 C246       -11.3759    10.1523    17.3066 C         1 MOL       0.0000
    743 H214        -6.1062     8.7401    15.6065 H         1 MOL       0.0000
    744 H215        -7.1598     9.5004    14.4159 H         1 MOL       0.0000
    745 H216        -9.3334    10.3779    15.1588 H         1 MOL       0.0000
    746 H217        -6.3800     7.1173    13.8162 H         1 MOL       0.0000
    747 H218        -7.3923     7.7680    17.8431 H         1 MOL       0.0000
    748 H219       -11.5399    10.7744    18.1797 H         1 MOL       0.0000
    749 H220       -11.7222    10.6770    16.4148 H         1 MOL       0.0000
    750 H221        -7.4262     6.4982    15.1495 H         1 MOL       0.0000
    751 H222        -9.8045     8.6049    18.9770 H         1 MOL       0.0000
    752 H223        -8.1140     7.2816    13.7660 H         1 MOL       0.0000
    753 H224       -11.9544     9.2053    17.3263 H         1 MOL       0.0000
    754 N40        -11.7996     8.0834    14.1890 N         1 MOL       0.0000
    755 C247         3.1925     5.5831    16.2669 C         1 MOL       0.0000
    756 C248        -1.4860     0.9632    25.3343 C         1 MOL       0.0000
    757 O157       -10.5033    10.5543    13.3252 O         1 MOL       0.0000
    758 O158       -16.2235    20.5829    15.6369 O         1 MOL       0.0000
    759 O159       -14.8808     1.2227    25.0827 O         1 MOL       0.0000
    760 O160       -17.0069    20.5235    13.1753 O         1 MOL       0.0000
    761 F43          2.6895     6.0185    17.4779 F         1 MOL       0.0000
    762 F44         -2.8896     1.6180    25.9622 F         1 MOL       0.0000
    763 F45         -4.6022    19.9502    14.9827 F         1 MOL       0.0000
    764 F46         -3.3757    18.7848    16.5032 F         1 MOL       0.0000
    765 F47         -0.6387     1.3906    23.7470 F         1 MOL       0.0000
    766 F48         -7.9482    13.5595    25.0305 F         1 MOL       0.0000
    767 S15        -15.6024     2.1183    26.0414 S         1 MOL       0.0000
    768 S16        -17.3774    20.9417    14.7239 S         1 MOL       0.0000
    769 Ti33        13.1446     1.6728    11.3364 Ti        1 MOL       0.0000
    770 Ti34        23.9750     4.5540     1.9716 Ti        1 MOL       0.0000
    771 Ti35        17.2413    -2.2634     9.5164 Ti        1 MOL       0.0000
    772 Ti36        18.7524     6.8987     3.7434 Ti        1 MOL       0.0000
    773 Ti37        17.7539     8.5770     1.8390 Ti        1 MOL       0.0000
    774 Ti38        19.1295    -2.5178    11.4698 Ti        1 MOL       0.0000
    775 Ti39        14.0938    -0.0631     9.4449 Ti        1 MOL       0.0000
    776 Ti40        21.9872     4.8565     3.8191 Ti        1 MOL       0.0000
    777 H225        13.6464     5.5698    11.1169 H         1 MOL       0.0000
    778 H226        24.7838     0.6479     2.2923 H         1 MOL       0.0000
    779 H227         9.1847     0.9161    10.9540 H         1 MOL       0.0000
    780 H228        27.3572     6.5583     2.1722 H         1 MOL       0.0000
    781 H229        20.1051    -6.5523    11.0839 H         1 MOL       0.0000
    782 H230        13.6953     7.9871     2.1610 H         1 MOL       0.0000
    783 H231        13.6133    -0.1258    13.0609 H         1 MOL       0.0000
    784 H232        22.0995     4.3113     0.2717 H         1 MOL       0.0000
    785 H233        19.6394    -3.1849     5.9587 H         1 MOL       0.0000
    786 H234        17.0290     8.7357     7.3624 H         1 MOL       0.0000
    787 H235        10.0211     3.3255     9.0890 H         1 MOL       0.0000
    788 H236        26.7298     2.4697     4.2776 H         1 MOL       0.0000
    789 H237        12.3222     1.8781     5.7552 H         1 MOL       0.0000
    790 H238        14.6538    10.4049     4.1922 H         1 MOL       0.0000
    791 H239        18.1461    11.6798     2.6945 H         1 MOL       0.0000
    792 H240        24.6260    -1.3709     3.4948 H         1 MOL       0.0000
    793 H241        20.8451     6.5788     2.4048 H         1 MOL       0.0000
    794 H242        16.1605    -0.4150    10.8100 H         1 MOL       0.0000
    795 H243        23.3642    -0.5829     9.8595 H         1 MOL       0.0000
    796 H244        21.8831    -1.0520    10.6068 H         1 MOL       0.0000
    797 H245        23.9383     3.8507     8.7606 H         1 MOL       0.0000
    798 H246        23.3686     4.2093     7.1420 H         1 MOL       0.0000
    799 H247        22.8754    -5.5378     9.6694 H         1 MOL       0.0000
    800 H248        21.5962    -4.4372    10.1268 H         1 MOL       0.0000
    801 C249        24.5531     3.8127     4.8351 C         1 MOL       0.0000
    802 C250        12.1840     1.9341     8.4894 C         1 MOL       0.0000
    803 C251        19.8218    -3.2741     8.5917 C         1 MOL       0.0000
    804 C252        16.8163     8.8692     4.7027 C         1 MOL       0.0000
    805 C253        25.4491     3.2084     5.8303 C         1 MOL       0.0000
    806 C254        11.2521     2.5592     7.5123 C         1 MOL       0.0000
    807 C255        20.7620    -3.8885     7.6445 C         1 MOL       0.0000
    808 C256        15.9265     9.5160     5.7025 C         1 MOL       0.0000
    809 C257        25.2003     3.2833     7.2367 C         1 MOL       0.0000
    810 C258        11.4685     2.4392     6.1243 C         1 MOL       0.0000
    811 C259        21.8914    -4.6488     8.0976 C         1 MOL       0.0000
    812 C260        14.8318    10.2890     5.2576 C         1 MOL       0.0000
    813 C261        16.1810     9.3453     7.0574 C         1 MOL       0.0000
    814 C262        20.5142    -3.7563     6.2606 C         1 MOL       0.0000
    815 C263        26.5828     2.5094     5.3546 C         1 MOL       0.0000
    816 C264        10.1519     3.2516     8.0110 C         1 MOL       0.0000
    817 C265        24.7648     0.7270     0.1482 C         1 MOL       0.0000
    818 C266        18.2951    12.5186     0.1732 C         1 MOL       0.0000
    819 C267        22.6143    -0.5759    13.1172 C         1 MOL       0.0000
    820 C268         9.2560     0.9665    13.0978 C         1 MOL       0.0000
    821 C269        19.4992     4.5555     5.7080 C         1 MOL       0.0000
    822 C270        14.7431    -2.5389     7.6261 C         1 MOL       0.0000
    823 C271        19.9940    -4.8842    13.2200 C         1 MOL       0.0000
    824 C272        18.2024    11.0851     0.1357 C         1 MOL       0.0000
    825 C273        21.3164    -1.1927    13.1640 C         1 MOL       0.0000
    826 C274        10.6583     1.3809    13.1223 C         1 MOL       0.0000
    827 C275        24.8042     0.0579     1.3779 C         1 MOL       0.0000
    828 C276        13.6574     6.1583    12.0308 C         1 MOL       0.0000
    829 C277        11.9046     7.3219     1.1661 C         1 MOL       0.0000
    830 C278         8.6232     0.7368    11.8693 C         1 MOL       0.0000
    831 C279        23.3089    -0.3076    11.8838 C         1 MOL       0.0000
    832 C280        13.1938     7.8021     1.2153 C         1 MOL       0.0000
    833 C281        20.1467    -7.0795    12.0329 C         1 MOL       0.0000
    834 C282        24.8259    -1.3432     1.4595 C         1 MOL       0.0000
    835 N41         24.8809    -1.9421     2.6976 N         1 MOL       0.0000
    836 N42         22.7299    -0.4905    10.6448 N         1 MOL       0.0000
    837 N43         24.1195     3.9296     7.7680 N         1 MOL       0.0000
    838 N44         22.2224    -4.8070     9.4150 N         1 MOL       0.0000
    839 O161        23.3768     4.2178     5.2009 O         1 MOL       0.0000
    840 O162        12.9530     0.9833     8.0911 O         1 MOL       0.0000
    841 O163        20.2032    -3.1497     9.8128 O         1 MOL       0.0000
    842 O164        16.7505     9.2989     3.5031 O         1 MOL       0.0000
    843 O165        17.5868     7.9120     5.0892 O         1 MOL       0.0000
    844 O166        18.6513    -2.9057     8.1862 O         1 MOL       0.0000
    845 O167        24.9650     3.8935     3.6234 O         1 MOL       0.0000
    846 O168        12.1420     2.3704     9.6891 O         1 MOL       0.0000
    847 O169        22.2924     3.6386     2.6244 O         1 MOL       0.0000
    848 O170        14.6462     1.4972    10.1894 O         1 MOL       0.0000
    849 O171        23.2312     5.9259     3.0743 O         1 MOL       0.0000
    850 O172        12.8940    -0.2275    10.6821 O         1 MOL       0.0000
    851 O173        17.5006    -3.4354    10.7768 O         1 MOL       0.0000
    852 O174        19.2690     8.4600     3.0049 O         1 MOL       0.0000
    853 O175        18.4545    -1.1739    10.3127 O         1 MOL       0.0000
    854 O176        17.5628     6.7029     2.4875 O         1 MOL       0.0000
    855 O177        20.7203     4.3756     5.3537 O         1 MOL       0.0000
    856 O178        14.0854    -1.5039     8.0043 O         1 MOL       0.0000
    857 O179        19.8718    -4.2896    12.0789 O         1 MOL       0.0000
    858 O180        18.1193    10.3836     1.2309 O         1 MOL       0.0000
    859 O181        20.6739    -1.5015    12.0738 O         1 MOL       0.0000
    860 O182        15.8833     8.5479     1.1708 O         1 MOL       0.0000
    861 O183        15.9049    -2.8334     8.0839 O         1 MOL       0.0000
    862 O184        18.7573     5.4764     5.2146 O         1 MOL       0.0000
    863 O185        25.4121     5.5731     1.2170 O         1 MOL       0.0000
    864 O186        11.2578     1.6127    12.0048 O         1 MOL       0.0000
    865 O187        24.6166     2.8188     1.2464 O         1 MOL       0.0000
    866 O188        13.5260     3.3950    12.0861 O         1 MOL       0.0000
    867 O189        20.4842     6.0301     3.1254 O         1 MOL       0.0000
    868 O190        15.7823    -0.9737    10.1065 O         1 MOL       0.0000
    869 O191        22.9383     4.8049     0.1926 O         1 MOL       0.0000
    870 O192        13.7357     0.8410    13.1209 O         1 MOL       0.0000
    871 H249        19.7018     0.9071     8.6132 H         1 MOL       0.0000
    872 H250         9.3974    10.0584     6.1968 H         1 MOL       0.0000
    873 H251        20.4547     9.6562     5.6821 H         1 MOL       0.0000
    874 H252        20.6970     2.4489     6.8973 H         1 MOL       0.0000
    875 H253        16.0421     3.1691     8.5172 H         1 MOL       0.0000
    876 H254        28.1285    -3.2117     7.1053 H         1 MOL       0.0000
    877 H255        17.3741     1.2730     9.3831 H         1 MOL       0.0000
    878 H256        17.0431     4.7150     6.8040 H         1 MOL       0.0000
    879 H257        21.7914     7.8880     4.5604 H         1 MOL       0.0000
    880 H258        24.2481     7.7941     4.8473 H         1 MOL       0.0000
    881 C283        18.9230     3.6625     6.7444 C         1 MOL       0.0000
    882 C284        17.8140     1.9491     8.6514 C         1 MOL       0.0000
    883 C285        22.2887     8.6217     5.1940 C         1 MOL       0.0000
    884 C286        14.0858    -3.5125     6.7233 C         1 MOL       0.0000
    885 C287        17.6094     3.8750     7.2005 C         1 MOL       0.0000
    886 C288        19.1281     1.7421     8.2141 C         1 MOL       0.0000
    887 C289        21.5359     9.6301     5.8070 C         1 MOL       0.0000
    888 C290         8.3186    10.0784     6.0591 C         1 MOL       0.0000
    889 C291        23.6767     8.5676     5.3577 C         1 MOL       0.0000
    890 C292        28.6924    -4.0098     6.6288 C         1 MOL       0.0000
    891 C293        19.6827     2.5970     7.2610 C         1 MOL       0.0000
    892 C294        17.0570     3.0167     8.1528 C         1 MOL       0.0000
    893 N45         21.3921    10.1734     1.3551 N         1 MOL       0.0000
    894 N46         18.1047     2.1826    12.9677 N         1 MOL       0.0000
    895 C295        21.2430    10.8528     0.1391 C         1 MOL       0.0000
    896 C296        17.4071     3.1744    12.3033 C         1 MOL       0.0000
    897 C297        20.3973     2.1528    11.9615 C         1 MOL       0.0000
    898 C298        20.9202    10.6943     2.6773 C         1 MOL       0.0000
    899 C299        22.3783     9.2635     1.1761 C         1 MOL       0.0000
    900 C300        19.1672     1.3476    12.3696 C         1 MOL       0.0000
    901 H259        16.0833     4.7324    13.1485 H         1 MOL       0.0000
    902 H260        17.5360     3.3659    11.2415 H         1 MOL       0.0000
    903 H261        20.1405     2.9484    11.2485 H         1 MOL       0.0000
    904 H262        20.5416    11.7131     2.5300 H         1 MOL       0.0000
    905 H263        20.8735     2.6301    12.8255 H         1 MOL       0.0000
    906 H264        20.1825    10.0389     3.1031 H         1 MOL       0.0000
    907 H265        21.1206     1.4854    11.4746 H         1 MOL       0.0000
    908 H266        18.7234     0.8252    11.5123 H         1 MOL       0.0000
    909 H267        21.7578    10.7621     3.3742 H         1 MOL       0.0000
    910 H268        22.9021     8.7283     1.9573 H         1 MOL       0.0000
    911 H269        19.4019     0.5854    13.1195 H         1 MOL       0.0000
    912 N47         29.3931    -1.0430     0.3148 N         1 MOL       0.0000
    913 C301        16.3483    -0.1038     1.8039 C         1 MOL       0.0000
    914 C302        25.7154    -6.3342    11.0668 C         1 MOL       0.0000
    915 O193        29.7972    -1.0694     2.7917 O         1 MOL       0.0000
    916 O194        24.4984    11.1560     1.3932 O         1 MOL       0.0000
    917 O195        17.2531     6.1053    11.0830 O         1 MOL       0.0000
    918 O196        19.8547     5.5430    10.4014 O         1 MOL       0.0000
    919 F49         15.9773     1.3889     2.2132 F         1 MOL       0.0000
    920 F50         26.3915    -4.9049    11.8920 F         1 MOL       0.0000
    921 F51         17.7788     0.5499     1.0245 F         1 MOL       0.0000
    922 F52         15.8638    -0.5949     3.7141 F         1 MOL       0.0000
    923 F53         24.5776    -5.5255    10.7536 F         1 MOL       0.0000
    924 F54         18.6954     7.6882     9.1399 F         1 MOL       0.0000
    925 S17         23.7996    12.7484     1.4384 S         1 MOL       0.0000
    926 S18         18.5876     6.3339    11.5523 S         1 MOL       0.0000
    927 N48         19.0893     0.9368     3.2789 N         1 MOL       0.0000
    928 N49         17.2274     1.6782     4.2323 N         1 MOL       0.0000
    929 C303        20.0559     0.5730     2.1928 C         1 MOL       0.0000
    930 C304        18.0200     1.7330     3.1306 C         1 MOL       0.0000
    931 C305        18.9753     0.3018     4.5162 C         1 MOL       0.0000
    932 C306        19.8903    -0.7904     1.4909 C         1 MOL       0.0000
    933 C307        17.8186     0.7514     5.0914 C         1 MOL       0.0000
    934 C308        15.7761     2.0483     4.3586 C         1 MOL       0.0000
    935 H270        21.0458     0.6361     2.6585 H         1 MOL       0.0000
    936 H271        19.9922     1.3964     1.4679 H         1 MOL       0.0000
    937 H272        17.8186     2.2739     2.2108 H         1 MOL       0.0000
    938 H273        20.7720    -0.9867     0.8682 H         1 MOL       0.0000
    939 H274        19.7597    -0.3360     4.8951 H         1 MOL       0.0000
    940 H275        15.6121     2.6704     5.2317 H         1 MOL       0.0000
    941 H276        15.4298     2.5730     3.4668 H         1 MOL       0.0000
    942 H277        19.7258    -1.6058     2.2015 H         1 MOL       0.0000
    943 H278        17.3475     0.5009     6.0290 H         1 MOL       0.0000
    944 H279        19.0380    -0.8224     0.8180 H         1 MOL       0.0000
    945 H280        15.1976     1.1013     4.3783 H         1 MOL       0.0000
    946 N50         15.3524    -0.0206     1.2410 N         1 MOL       0.0000
    947 C309        30.3445    -2.5209     3.3189 C         1 MOL       0.0000
    948 C310        25.6660    -7.1408    12.3863 C         1 MOL       0.0000
    949 O197        16.6487     2.4503     0.3772 O         1 MOL       0.0000
    950 O198        10.9285    12.4789     2.6889 O         1 MOL       0.0000
    951 O199        12.2712    -6.8813    12.1347 O         1 MOL       0.0000
    952 O200        10.1451    12.4195     0.2273 O         1 MOL       0.0000
    953 F55         29.8415    -2.0855     4.5299 F         1 MOL       0.0000
    954 F56         24.2624    -6.4860    13.0142 F         1 MOL       0.0000
    955 F57         22.5498    11.8462     2.0347 F         1 MOL       0.0000
    956 F58         23.7763    10.6808     3.5552 F         1 MOL       0.0000
    957 F59         26.5133    -6.7134    10.7990 F         1 MOL       0.0000
    958 F60         19.2038     5.4555    12.0825 F         1 MOL       0.0000
    959 S19         11.5496    -5.9857    13.0934 S         1 MOL       0.0000
    960 S20          9.7746    12.8377     1.7759 S         1 MOL       0.0000
    961 Ti41         8.5096    -5.3932    24.4314 Ti        1 MOL       0.0000
    962 Ti42        19.3400    -2.5120    15.0666 Ti        1 MOL       0.0000
    963 Ti43        12.6063    -9.3294    22.6114 Ti        1 MOL       0.0000
    964 Ti44        14.1174    -0.1673    16.8384 Ti        1 MOL       0.0000
    965 Ti45        13.1189     1.5110    14.9340 Ti        1 MOL       0.0000
    966 Ti46        14.4945    -9.5838    24.5648 Ti        1 MOL       0.0000
    967 Ti47         9.4588    -7.1291    22.5399 Ti        1 MOL       0.0000
    968 Ti48        17.3522    -2.2095    16.9140 Ti        1 MOL       0.0000
    969 H281         9.0114    -1.4961    24.2119 H         1 MOL       0.0000
    970 H282        20.1488    -6.4181    15.3873 H         1 MOL       0.0000
    971 H283         4.5497    -6.1499    24.0490 H         1 MOL       0.0000
    972 H284        22.7222    -0.5077    15.2672 H         1 MOL       0.0000
    973 H285        15.4701   -13.6183    24.1789 H         1 MOL       0.0000
    974 H286         9.0603     0.9211    15.2561 H         1 MOL       0.0000
    975 H287         8.9783    -7.1918    26.1559 H         1 MOL       0.0000
    976 H288        17.4645    -2.7547    13.3666 H         1 MOL       0.0000
    977 H289        15.0044   -10.2509    19.0537 H         1 MOL       0.0000
    978 H290        12.3940     1.6697    20.4573 H         1 MOL       0.0000
    979 H291         5.3861    -3.7405    22.1840 H         1 MOL       0.0000
    980 H292        22.0948    -4.5963    17.3726 H         1 MOL       0.0000
    981 H293         7.6872    -5.1879    18.8502 H         1 MOL       0.0000
    982 H294        10.0188     3.3389    17.2872 H         1 MOL       0.0000
    983 H295        13.5111     4.6138    15.7895 H         1 MOL       0.0000
    984 H296        19.9910    -8.4369    16.5898 H         1 MOL       0.0000
    985 H297        16.2101    -0.4872    15.4998 H         1 MOL       0.0000
    986 H298        11.5255    -7.4810    23.9050 H         1 MOL       0.0000
    987 H299        18.7292    -7.6489    22.9545 H         1 MOL       0.0000
    988 H300        17.2481    -8.1180    23.7018 H         1 MOL       0.0000
    989 H301        19.3033    -3.2153    21.8555 H         1 MOL       0.0000
    990 H302        18.7336    -2.8567    20.2370 H         1 MOL       0.0000
    991 H303        18.2404   -12.6038    22.7644 H         1 MOL       0.0000
    992 H304        16.9612   -11.5032    23.2218 H         1 MOL       0.0000
    993 C311        19.9181    -3.2533    17.9301 C         1 MOL       0.0000
    994 C312         7.5490    -5.1319    21.5844 C         1 MOL       0.0000
    995 C313        15.1867   -10.3401    21.6867 C         1 MOL       0.0000
    996 C314        12.1813     1.8032    17.7978 C         1 MOL       0.0000
    997 C315        20.8141    -3.8576    18.9253 C         1 MOL       0.0000
    998 C316         6.6171    -4.5068    20.6073 C         1 MOL       0.0000
    999 C317        16.1270   -10.9545    20.7395 C         1 MOL       0.0000
   1000 C318        11.2915     2.4500    18.7975 C         1 MOL       0.0000
   1001 C319        20.5653    -3.7827    20.3317 C         1 MOL       0.0000
   1002 C320         6.8335    -4.6268    19.2193 C         1 MOL       0.0000
   1003 C321        17.2564   -11.7148    21.1926 C         1 MOL       0.0000
   1004 C322        10.1968     3.2230    18.3526 C         1 MOL       0.0000
   1005 C323        11.5460     2.2792    20.1524 C         1 MOL       0.0000
   1006 C324        15.8792   -10.8223    19.3556 C         1 MOL       0.0000
   1007 C325        21.9478    -4.5566    18.4496 C         1 MOL       0.0000
   1008 C326         5.5170    -3.8144    21.1060 C         1 MOL       0.0000
   1009 C327        20.1298    -6.3390    13.2432 C         1 MOL       0.0000
   1010 C328        13.6601     5.4526    13.2682 C         1 MOL       0.0000
   1011 C329        17.9793    -7.6419    26.2122 C         1 MOL       0.0000
   1012 C330         4.6210    -6.0995    26.1928 C         1 MOL       0.0000
   1013 C331        14.8642    -2.5105    18.8030 C         1 MOL       0.0000
   1014 C332        10.1081    -9.6049    20.7211 C         1 MOL       0.0000
   1015 C333        15.3590   -11.9502    26.3150 C         1 MOL       0.0000
   1016 C334        13.5674     4.0191    13.2307 C         1 MOL       0.0000
   1017 C335        16.6814    -8.2587    26.2590 C         1 MOL       0.0000
   1018 C336         6.0233    -5.6851    26.2173 C         1 MOL       0.0000
   1019 C337        20.1692    -7.0081    14.4729 C         1 MOL       0.0000
   1020 C338         9.0224    -0.9077    25.1258 C         1 MOL       0.0000
   1021 C339         7.2696     0.2559    14.2611 C         1 MOL       0.0000
   1022 C340         3.9882    -6.3292    24.9643 C         1 MOL       0.0000
   1023 C341        18.6739    -7.3736    24.9788 C         1 MOL       0.0000
   1024 C342         8.5588     0.7361    14.3103 C         1 MOL       0.0000
   1025 C343        15.5117   -14.1455    25.1279 C         1 MOL       0.0000
   1026 C344        20.1909    -8.4092    14.5545 C         1 MOL       0.0000
   1027 N51         20.2459    -9.0081    15.7926 N         1 MOL       0.0000
   1028 N52         18.0949    -7.5564    23.7398 N         1 MOL       0.0000
   1029 N53         19.4844    -3.1364    20.8630 N         1 MOL       0.0000
   1030 N54         17.5874   -11.8730    22.5100 N         1 MOL       0.0000
   1031 O201        18.7418    -2.8482    18.2959 O         1 MOL       0.0000
   1032 O202         8.3180    -6.0827    21.1861 O         1 MOL       0.0000
   1033 O203        15.5682   -10.2157    22.9078 O         1 MOL       0.0000
   1034 O204        12.1155     2.2329    16.5982 O         1 MOL       0.0000
   1035 O205        12.9518     0.8460    18.1842 O         1 MOL       0.0000
   1036 O206        14.0163    -9.9717    21.2812 O         1 MOL       0.0000
   1037 O207        20.3300    -3.1725    16.7184 O         1 MOL       0.0000
   1038 O208         7.5070    -4.6956    22.7841 O         1 MOL       0.0000
   1039 O209        17.6574    -3.4274    15.7194 O         1 MOL       0.0000
   1040 O210        10.0112    -5.5688    23.2844 O         1 MOL       0.0000
   1041 O211        18.5962    -1.1401    16.1693 O         1 MOL       0.0000
   1042 O212         8.2590    -7.2935    23.7771 O         1 MOL       0.0000
   1043 O213        12.8655   -10.5014    23.8718 O         1 MOL       0.0000
   1044 O214        14.6340     1.3940    16.0999 O         1 MOL       0.0000
   1045 O215        13.8195    -8.2399    23.4077 O         1 MOL       0.0000
   1046 O216        12.9278    -0.3631    15.5825 O         1 MOL       0.0000
   1047 O217        16.0853    -2.6904    18.4487 O         1 MOL       0.0000
   1048 O218         9.4504    -8.5699    21.0993 O         1 MOL       0.0000
   1049 O219        15.2368   -11.3556    25.1739 O         1 MOL       0.0000
   1050 O220        13.4843     3.3176    14.3259 O         1 MOL       0.0000
   1051 O221        16.0389    -8.5675    25.1688 O         1 MOL       0.0000
   1052 O222        11.2483     1.4819    14.2658 O         1 MOL       0.0000
   1053 O223        11.2699    -9.8994    21.1789 O         1 MOL       0.0000
   1054 O224        14.1223    -1.5896    18.3096 O         1 MOL       0.0000
   1055 O225        20.7771    -1.4929    14.3120 O         1 MOL       0.0000
   1056 O226         6.6228    -5.4533    25.0998 O         1 MOL       0.0000
   1057 O227        19.9816    -4.2472    14.3414 O         1 MOL       0.0000
   1058 O228         8.8910    -3.6709    25.1811 O         1 MOL       0.0000
   1059 O229        15.8492    -1.0359    16.2204 O         1 MOL       0.0000
   1060 O230        11.1473    -8.0397    23.2015 O         1 MOL       0.0000
   1061 O231        18.3033    -2.2611    13.2876 O         1 MOL       0.0000
   1062 O232         9.1007    -6.2250    26.2159 O         1 MOL       0.0000
   1063 H305        15.0668    -6.1589    21.7082 H         1 MOL       0.0000
   1064 H306         4.7624     2.9924    19.2918 H         1 MOL       0.0000
   1065 H307        15.8197     2.5902    18.7771 H         1 MOL       0.0000
   1066 H308        16.0620    -4.6171    19.9923 H         1 MOL       0.0000
   1067 H309        11.4071    -3.8969    21.6122 H         1 MOL       0.0000
   1068 H310        23.4935   -10.2777    20.2003 H         1 MOL       0.0000
   1069 H311        12.7391    -5.7930    22.4781 H         1 MOL       0.0000
   1070 H312        12.4081    -2.3510    19.8990 H         1 MOL       0.0000
   1071 H313        17.1564     0.8220    17.6554 H         1 MOL       0.0000
   1072 H314        19.6131     0.7281    17.9423 H         1 MOL       0.0000
   1073 C345        14.2880    -3.4035    19.8394 C         1 MOL       0.0000
   1074 C346        13.1790    -5.1169    21.7464 C         1 MOL       0.0000
   1075 C347        17.6537     1.5557    18.2890 C         1 MOL       0.0000
   1076 C348         9.4508   -10.5785    19.8183 C         1 MOL       0.0000
   1077 C349        12.9744    -3.1910    20.2955 C         1 MOL       0.0000
   1078 C350        14.4931    -5.3239    21.3091 C         1 MOL       0.0000
   1079 C351        16.9009     2.5641    18.9020 C         1 MOL       0.0000
   1080 C352         3.6836     3.0124    19.1541 C         1 MOL       0.0000
   1081 C353        19.0417     1.5016    18.4527 C         1 MOL       0.0000
   1082 C354        24.0574   -11.0758    19.7238 C         1 MOL       0.0000
   1083 C355        15.0477    -4.4690    20.3560 C         1 MOL       0.0000
   1084 C356        12.4220    -4.0493    21.2478 C         1 MOL       0.0000
   1085 N55         16.7571     3.1074    14.4501 N         1 MOL       0.0000
   1086 N56         13.4697    -4.8834    26.0627 N         1 MOL       0.0000
   1087 C357        16.6080     3.7868    13.2341 C         1 MOL       0.0000
   1088 C358        12.7721    -3.8916    25.3983 C         1 MOL       0.0000
   1089 C359        15.7623    -4.9132    25.0565 C         1 MOL       0.0000
   1090 C360        16.2852     3.6283    15.7723 C         1 MOL       0.0000
   1091 C361        17.7433     2.1975    14.2711 C         1 MOL       0.0000
   1092 C362        14.5322    -5.7184    25.4646 C         1 MOL       0.0000
   1093 H315        11.4483    -2.3336    26.2435 H         1 MOL       0.0000
   1094 H316        12.9010    -3.7001    24.3365 H         1 MOL       0.0000
   1095 H317        15.5055    -4.1176    24.3435 H         1 MOL       0.0000
   1096 H318        15.9066     4.6471    15.6250 H         1 MOL       0.0000
   1097 H319        16.2385    -4.4359    25.9205 H         1 MOL       0.0000
   1098 H320        15.5475     2.9729    16.1981 H         1 MOL       0.0000
   1099 H321        16.4856    -5.5806    24.5696 H         1 MOL       0.0000
   1100 H322        14.0884    -6.2408    24.6073 H         1 MOL       0.0000
   1101 H323        17.1228     3.6961    16.4692 H         1 MOL       0.0000
   1102 H324        18.2671     1.6623    15.0523 H         1 MOL       0.0000
   1103 H325        14.7669    -6.4806    26.2145 H         1 MOL       0.0000
   1104 N57         24.7581    -8.1090    13.4098 N         1 MOL       0.0000
   1105 C363        11.7133    -7.1698    14.8989 C         1 MOL       0.0000
   1106 C364        21.0804   -13.4002    24.1618 C         1 MOL       0.0000
   1107 O233        25.1622    -8.1354    15.8867 O         1 MOL       0.0000
   1108 O234        19.8634     4.0900    14.4882 O         1 MOL       0.0000
   1109 O235        12.6181    -0.9607    24.1780 O         1 MOL       0.0000
   1110 O236        15.2197    -1.5230    23.4964 O         1 MOL       0.0000
   1111 F61         11.3423    -5.6771    15.3082 F         1 MOL       0.0000
   1112 F62         21.7565   -11.9709    24.9870 F         1 MOL       0.0000
   1113 F63         13.1438    -6.5161    14.1195 F         1 MOL       0.0000
   1114 F64         11.2288    -7.6609    16.8091 F         1 MOL       0.0000
   1115 F65         19.9426   -12.5915    23.8486 F         1 MOL       0.0000
   1116 F66         14.0604     0.6222    22.2349 F         1 MOL       0.0000
   1117 S21         19.1646     5.6824    14.5334 S         1 MOL       0.0000
   1118 S22         13.9526    -0.7321    24.6473 S         1 MOL       0.0000
   1119 N58         14.4543    -6.1292    16.3739 N         1 MOL       0.0000
   1120 N59         12.5924    -5.3878    17.3273 N         1 MOL       0.0000
   1121 C365        15.4209    -6.4930    15.2878 C         1 MOL       0.0000
   1122 C366        13.3850    -5.3330    16.2256 C         1 MOL       0.0000
   1123 C367        14.3403    -6.7642    17.6112 C         1 MOL       0.0000
   1124 C368        15.2553    -7.8564    14.5859 C         1 MOL       0.0000
   1125 C369        13.1836    -6.3146    18.1864 C         1 MOL       0.0000
   1126 C370        11.1411    -5.0177    17.4536 C         1 MOL       0.0000
   1127 H326        16.4108    -6.4299    15.7535 H         1 MOL       0.0000
   1128 H327        15.3572    -5.6696    14.5629 H         1 MOL       0.0000
   1129 H328        13.1836    -4.7921    15.3058 H         1 MOL       0.0000
   1130 H329        16.1370    -8.0527    13.9632 H         1 MOL       0.0000
   1131 H330        15.1247    -7.4020    17.9901 H         1 MOL       0.0000
   1132 H331        10.9771    -4.3956    18.3267 H         1 MOL       0.0000
   1133 H332        10.7948    -4.4930    16.5618 H         1 MOL       0.0000
   1134 H333        15.0908    -8.6718    15.2965 H         1 MOL       0.0000
   1135 H334        12.7125    -6.5651    19.1240 H         1 MOL       0.0000
   1136 H335        14.4030    -7.8884    13.9130 H         1 MOL       0.0000
   1137 H336        10.5626    -5.9647    17.4733 H         1 MOL       0.0000
   1138 N60         10.7174    -7.0866    14.3360 N         1 MOL       0.0000
   1139 C371        25.7095    -9.5869    16.4139 C         1 MOL       0.0000
   1140 C372        21.0310   -14.2068    25.4813 C         1 MOL       0.0000
   1141 O237        12.0137    -4.6157    13.4722 O         1 MOL       0.0000
   1142 O238         6.2935     5.4129    15.7839 O         1 MOL       0.0000
   1143 O239         7.6362   -13.9473    25.2297 O         1 MOL       0.0000
   1144 O240         5.5101     5.3535    13.3223 O         1 MOL       0.0000
   1145 F67         25.2065    -9.1515    17.6249 F         1 MOL       0.0000
   1146 F68         19.6274   -13.5520    26.1092 F         1 MOL       0.0000
   1147 F69         17.9148     4.7802    15.1297 F         1 MOL       0.0000
   1148 F70         19.1413     3.6148    16.6502 F         1 MOL       0.0000
   1149 F71         21.8783   -13.7794    23.8940 F         1 MOL       0.0000
   1150 F72         14.5688    -1.6105    25.1775 F         1 MOL       0.0000
   1151 S23          6.9146   -13.0517    26.1884 S         1 MOL       0.0000
   1152 S24          5.1396     5.7717    14.8709 S         1 MOL       0.0000
   1153 Ti49         6.6276    16.2858    11.2794 Ti        1 MOL       0.0000
   1154 Ti50        17.4580    19.1670     1.9146 Ti        1 MOL       0.0000
   1155 Ti51        10.7242    12.3496     9.4594 Ti        1 MOL       0.0000
   1156 Ti52        12.2354    21.5117     3.6864 Ti        1 MOL       0.0000
   1157 Ti53        11.2369    23.1900     1.7820 Ti        1 MOL       0.0000
   1158 Ti54        12.6125    12.0952    11.4128 Ti        1 MOL       0.0000
   1159 Ti55         7.5768    14.5499     9.3879 Ti        1 MOL       0.0000
   1160 Ti56        15.4702    19.4695     3.7621 Ti        1 MOL       0.0000
   1161 H337         7.1294    20.1828    11.0599 H         1 MOL       0.0000
   1162 H338        18.2668    15.2609     2.2353 H         1 MOL       0.0000
   1163 H339         2.6677    15.5291    10.8970 H         1 MOL       0.0000
   1164 H340        20.8402    21.1713     2.1152 H         1 MOL       0.0000
   1165 H341        13.5881     8.0607    11.0269 H         1 MOL       0.0000
   1166 H342         7.1783    22.6001     2.1040 H         1 MOL       0.0000
   1167 H343         7.0963    14.4872    13.0039 H         1 MOL       0.0000
   1168 H344        15.5825    18.9243     0.2147 H         1 MOL       0.0000
   1169 H345        13.1224    11.4281     5.9017 H         1 MOL       0.0000
   1170 H346        10.5120    23.3487     7.3053 H         1 MOL       0.0000
   1171 H347         3.5041    17.9385     9.0320 H         1 MOL       0.0000
   1172 H348        20.2128    17.0826     4.2206 H         1 MOL       0.0000
   1173 H349         5.8052    16.4911     5.6982 H         1 MOL       0.0000
   1174 H350         8.1368    25.0179     4.1352 H         1 MOL       0.0000
   1175 H351        11.6291    26.2928     2.6375 H         1 MOL       0.0000
   1176 H352        18.1090    13.2421     3.4378 H         1 MOL       0.0000
   1177 H353        14.3281    21.1918     2.3478 H         1 MOL       0.0000
   1178 H354         9.6435    14.1980    10.7530 H         1 MOL       0.0000
   1179 H355        16.8472    14.0301     9.8025 H         1 MOL       0.0000
   1180 H356        15.3661    13.5610    10.5498 H         1 MOL       0.0000
   1181 H357        17.4213    18.4637     8.7035 H         1 MOL       0.0000
   1182 H358        16.8516    18.8223     7.0850 H         1 MOL       0.0000
   1183 H359        16.3584     9.0752     9.6124 H         1 MOL       0.0000
   1184 H360        15.0792    10.1758    10.0698 H         1 MOL       0.0000
   1185 C373        18.0361    18.4257     4.7781 C         1 MOL       0.0000
   1186 C374         5.6670    16.5472     8.4324 C         1 MOL       0.0000
   1187 C375        13.3048    11.3389     8.5347 C         1 MOL       0.0000
   1188 C376        10.2993    23.4822     4.6457 C         1 MOL       0.0000
   1189 C377        18.9321    17.8214     5.7733 C         1 MOL       0.0000
   1190 C378         4.7351    17.1722     7.4553 C         1 MOL       0.0000
   1191 C379        14.2450    10.7245     7.5875 C         1 MOL       0.0000
   1192 C380         9.4095    24.1290     5.6455 C         1 MOL       0.0000
   1193 C381        18.6833    17.8963     7.1797 C         1 MOL       0.0000
   1194 C382         4.9515    17.0522     6.0673 C         1 MOL       0.0000
   1195 C383        15.3744     9.9642     8.0406 C         1 MOL       0.0000
   1196 C384         8.3148    24.9020     5.2006 C         1 MOL       0.0000
   1197 C385         9.6640    23.9582     7.0004 C         1 MOL       0.0000
   1198 C386        13.9972    10.8566     6.2036 C         1 MOL       0.0000
   1199 C387        20.0658    17.1224     5.2976 C         1 MOL       0.0000
   1200 C388         3.6349    17.8646     7.9540 C         1 MOL       0.0000
   1201 C389        18.2478    15.3400     0.0912 C         1 MOL       0.0000
   1202 C390        11.7781    27.1316     0.1162 C         1 MOL       0.0000
   1203 C391        16.0973    14.0371    13.0602 C         1 MOL       0.0000
   1204 C392         2.7390    15.5795    13.0408 C         1 MOL       0.0000
   1205 C393        12.9822    19.1685     5.6510 C         1 MOL       0.0000
   1206 C394         8.2261    12.0742     7.5691 C         1 MOL       0.0000
   1207 C395        13.4770     9.7288    13.1630 C         1 MOL       0.0000
   1208 C396        11.6854    25.6981     0.0787 C         1 MOL       0.0000
   1209 C397        14.7995    13.4203    13.1070 C         1 MOL       0.0000
   1210 C398         4.1413    15.9939    13.0653 C         1 MOL       0.0000
   1211 C399        18.2872    14.6709     1.3209 C         1 MOL       0.0000
   1212 C400         7.1404    20.7713    11.9738 C         1 MOL       0.0000
   1213 C401         5.3876    21.9349     1.1091 C         1 MOL       0.0000
   1214 C402         2.1062    15.3498    11.8123 C         1 MOL       0.0000
   1215 C403        16.7919    14.3054    11.8268 C         1 MOL       0.0000
   1216 C404         6.6768    22.4151     1.1583 C         1 MOL       0.0000
   1217 C405        13.6297     7.5335    11.9759 C         1 MOL       0.0000
   1218 C406        18.3089    13.2698     1.4025 C         1 MOL       0.0000
   1219 N61         18.3639    12.6709     2.6406 N         1 MOL       0.0000
   1220 N62         16.2129    14.1226    10.5878 N         1 MOL       0.0000
   1221 N63         17.6025    18.5426     7.7110 N         1 MOL       0.0000
   1222 N64         15.7054     9.8060     9.3580 N         1 MOL       0.0000
   1223 O241        16.8598    18.8308     5.1439 O         1 MOL       0.0000
   1224 O242         6.4360    15.5963     8.0341 O         1 MOL       0.0000
   1225 O243        13.6862    11.4633     9.7558 O         1 MOL       0.0000
   1226 O244        10.2335    23.9119     3.4461 O         1 MOL       0.0000
   1227 O245        11.0698    22.5250     5.0322 O         1 MOL       0.0000
   1228 O246        12.1343    11.7073     8.1292 O         1 MOL       0.0000
   1229 O247        18.4480    18.5065     3.5664 O         1 MOL       0.0000
   1230 O248         5.6250    16.9834     9.6321 O         1 MOL       0.0000
   1231 O249        15.7754    18.2516     2.5674 O         1 MOL       0.0000
   1232 O250         8.1292    16.1102    10.1324 O         1 MOL       0.0000
   1233 O251        16.7142    20.5389     3.0173 O         1 MOL       0.0000
   1234 O252         6.3770    14.3855    10.6251 O         1 MOL       0.0000
   1235 O253        10.9835    11.1776    10.7198 O         1 MOL       0.0000
   1236 O254        12.7520    23.0730     2.9479 O         1 MOL       0.0000
   1237 O255        11.9375    13.4391    10.2557 O         1 MOL       0.0000
   1238 O256        11.0458    21.3159     2.4305 O         1 MOL       0.0000
   1239 O257        14.2033    18.9886     5.2967 O         1 MOL       0.0000
   1240 O258         7.5684    13.1091     7.9473 O         1 MOL       0.0000
   1241 O259        13.3548    10.3234    12.0219 O         1 MOL       0.0000
   1242 O260        11.6023    24.9966     1.1739 O         1 MOL       0.0000
   1243 O261        14.1569    13.1115    12.0168 O         1 MOL       0.0000
   1244 O262         9.3663    23.1609     1.1138 O         1 MOL       0.0000
   1245 O263         9.3879    11.7796     8.0269 O         1 MOL       0.0000
   1246 O264        12.2403    20.0894     5.1576 O         1 MOL       0.0000
   1247 O265        18.8951    20.1861     1.1600 O         1 MOL       0.0000
   1248 O266         4.7408    16.2257    11.9478 O         1 MOL       0.0000
   1249 O267        18.0995    17.4318     1.1894 O         1 MOL       0.0000
   1250 O268         7.0090    18.0080    12.0291 O         1 MOL       0.0000
   1251 O269        13.9672    20.6431     3.0684 O         1 MOL       0.0000
   1252 O270         9.2653    13.6393    10.0495 O         1 MOL       0.0000
   1253 O271        16.4213    19.4179     0.1356 O         1 MOL       0.0000
   1254 O272         7.2187    15.4540    13.0639 O         1 MOL       0.0000
   1255 H361        13.1848    15.5201     8.5562 H         1 MOL       0.0000
   1256 H362         2.8804    24.6714     6.1398 H         1 MOL       0.0000
   1257 H363        13.9377    24.2692     5.6251 H         1 MOL       0.0000
   1258 H364        14.1800    17.0619     6.8403 H         1 MOL       0.0000
   1259 H365         9.5251    17.7821     8.4602 H         1 MOL       0.0000
   1260 H366        21.6115    11.4013     7.0483 H         1 MOL       0.0000
   1261 H367        10.8571    15.8860     9.3261 H         1 MOL       0.0000
   1262 H368        10.5261    19.3280     6.7470 H         1 MOL       0.0000
   1263 H369        15.2744    22.5010     4.5034 H         1 MOL       0.0000
   1264 H370        17.7311    22.4071     4.7903 H         1 MOL       0.0000
   1265 C407        12.4060    18.2755     6.6874 C         1 MOL       0.0000
   1266 C408        11.2970    16.5621     8.5944 C         1 MOL       0.0000
   1267 C409        15.7717    23.2347     5.1370 C         1 MOL       0.0000
   1268 C410         7.5688    11.1005     6.6663 C         1 MOL       0.0000
   1269 C411        11.0924    18.4880     7.1435 C         1 MOL       0.0000
   1270 C412        12.6111    16.3551     8.1571 C         1 MOL       0.0000
   1271 C413        15.0189    24.2431     5.7500 C         1 MOL       0.0000
   1272 C414         1.8016    24.6914     6.0021 C         1 MOL       0.0000
   1273 C415        17.1597    23.1806     5.3007 C         1 MOL       0.0000
   1274 C416        22.1754    10.6032     6.5718 C         1 MOL       0.0000
   1275 C417        13.1657    17.2100     7.2040 C         1 MOL       0.0000
   1276 C418        10.5400    17.6297     8.0958 C         1 MOL       0.0000
   1277 N65         14.8751    24.7864     1.2981 N         1 MOL       0.0000
   1278 N66         11.5877    16.7956    12.9107 N         1 MOL       0.0000
   1279 C419        14.7260    25.4658     0.0821 C         1 MOL       0.0000
   1280 C420        10.8901    17.7874    12.2463 C         1 MOL       0.0000
   1281 C421        13.8803    16.7658    11.9045 C         1 MOL       0.0000
   1282 C422        14.4032    25.3073     2.6203 C         1 MOL       0.0000
   1283 C423        15.8613    23.8765     1.1191 C         1 MOL       0.0000
   1284 C424        12.6502    15.9606    12.3126 C         1 MOL       0.0000
   1285 H371         9.5663    19.3454    13.0915 H         1 MOL       0.0000
   1286 H372        11.0190    17.9789    11.1845 H         1 MOL       0.0000
   1287 H373        13.6235    17.5614    11.1915 H         1 MOL       0.0000
   1288 H374        14.0246    26.3261     2.4730 H         1 MOL       0.0000
   1289 H375        14.3565    17.2431    12.7685 H         1 MOL       0.0000
   1290 H376        13.6655    24.6519     3.0461 H         1 MOL       0.0000
   1291 H377        14.6036    16.0984    11.4176 H         1 MOL       0.0000
   1292 H378        12.2064    15.4382    11.4553 H         1 MOL       0.0000
   1293 H379        15.2408    25.3751     3.3172 H         1 MOL       0.0000
   1294 H380        16.3851    23.3413     1.9003 H         1 MOL       0.0000
   1295 H381        12.8849    15.1984    13.0625 H         1 MOL       0.0000
   1296 N67         22.8761    13.5700     0.2578 N         1 MOL       0.0000
   1297 C425         9.8313    14.5092     1.7469 C         1 MOL       0.0000
   1298 C426        19.1984     8.2788    11.0098 C         1 MOL       0.0000
   1299 O273        23.2802    13.5436     2.7347 O         1 MOL       0.0000
   1300 O274        17.9814    25.7690     1.3362 O         1 MOL       0.0000
   1301 O275        10.7361    20.7183    11.0260 O         1 MOL       0.0000
   1302 O276        13.3377    20.1560    10.3444 O         1 MOL       0.0000
   1303 F73          9.4603    16.0019     2.1562 F         1 MOL       0.0000
   1304 F74         19.8745     9.7081    11.8350 F         1 MOL       0.0000
   1305 F75         11.2618    15.1629     0.9675 F         1 MOL       0.0000
   1306 F76          9.3468    14.0181     3.6571 F         1 MOL       0.0000
   1307 F77         18.0606     9.0875    10.6966 F         1 MOL       0.0000
   1308 F78         12.1784    22.3012     9.0829 F         1 MOL       0.0000
   1309 S25         17.2826    27.3614     1.3814 S         1 MOL       0.0000
   1310 S26         12.0706    20.9469    11.4953 S         1 MOL       0.0000
   1311 N68         12.5723    15.5498     3.2219 N         1 MOL       0.0000
   1312 N69         10.7104    16.2912     4.1753 N         1 MOL       0.0000
   1313 C427        13.5389    15.1860     2.1358 C         1 MOL       0.0000
   1314 C428        11.5030    16.3460     3.0736 C         1 MOL       0.0000
   1315 C429        12.4583    14.9148     4.4592 C         1 MOL       0.0000
   1316 C430        13.3733    13.8226     1.4339 C         1 MOL       0.0000
   1317 C431        11.3016    15.3644     5.0344 C         1 MOL       0.0000
   1318 C432         9.2591    16.6613     4.3016 C         1 MOL       0.0000
   1319 H382        14.5288    15.2491     2.6015 H         1 MOL       0.0000
   1320 H383        13.4752    16.0094     1.4109 H         1 MOL       0.0000
   1321 H384        11.3016    16.8869     2.1538 H         1 MOL       0.0000
   1322 H385        14.2550    13.6263     0.8112 H         1 MOL       0.0000
   1323 H386        13.2427    14.2770     4.8381 H         1 MOL       0.0000
   1324 H387         9.0951    17.2834     5.1747 H         1 MOL       0.0000
   1325 H388         8.9128    17.1860     3.4098 H         1 MOL       0.0000
   1326 H389        13.2088    13.0072     2.1445 H         1 MOL       0.0000
   1327 H390        10.8305    15.1139     5.9720 H         1 MOL       0.0000
   1328 H391        12.5210    13.7906     0.7610 H         1 MOL       0.0000
   1329 H392         8.6806    15.7143     4.3213 H         1 MOL       0.0000
   1330 N70          8.8354    14.5924     1.1840 N         1 MOL       0.0000
   1331 C433        23.8275    12.0921     3.2619 C         1 MOL       0.0000
   1332 C434        19.1490     7.4722    12.3293 C         1 MOL       0.0000
   1333 O277        10.1317    17.0633     0.3202 O         1 MOL       0.0000
   1334 O278         4.4115    27.0919     2.6319 O         1 MOL       0.0000
   1335 O279         5.7542     7.7317    12.0777 O         1 MOL       0.0000
   1336 O280         3.6281    27.0325     0.1703 O         1 MOL       0.0000
   1337 F79         23.3245    12.5275     4.4729 F         1 MOL       0.0000
   1338 F80         17.7454     8.1270    12.9572 F         1 MOL       0.0000
   1339 F81         16.0328    26.4592     1.9777 F         1 MOL       0.0000
   1340 F82         17.2593    25.2938     3.4982 F         1 MOL       0.0000
   1341 F83         19.9963     7.8996    10.7420 F         1 MOL       0.0000
   1342 F84         12.6868    20.0685    12.0255 F         1 MOL       0.0000
   1343 S27          5.0326     8.6273    13.0364 S         1 MOL       0.0000
   1344 S28          3.2576    27.4507     1.7189 S         1 MOL       0.0000
   1345 Ti57         1.9926     9.2198    24.3744 Ti        1 MOL       0.0000
   1346 Ti58        12.8230    12.1010    15.0096 Ti        1 MOL       0.0000
   1347 Ti59         6.0892     5.2836    22.5544 Ti        1 MOL       0.0000
   1348 Ti60         7.6004    14.4457    16.7814 Ti        1 MOL       0.0000
   1349 Ti61         6.6019    16.1240    14.8770 Ti        1 MOL       0.0000
   1350 Ti62         7.9775     5.0292    24.5078 Ti        1 MOL       0.0000
   1351 Ti63         2.9418     7.4839    22.4829 Ti        1 MOL       0.0000
   1352 Ti64        10.8352    12.4035    16.8571 Ti        1 MOL       0.0000
   1353 H393         2.4944    13.1168    24.1549 H         1 MOL       0.0000
   1354 H394        13.6318     8.1949    15.3303 H         1 MOL       0.0000
   1355 H395        -1.9673     8.4631    23.9920 H         1 MOL       0.0000
   1356 H396        16.2052    14.1053    15.2102 H         1 MOL       0.0000
   1357 H397         8.9531     0.9947    24.1219 H         1 MOL       0.0000
   1358 H398         2.5433    15.5341    15.1991 H         1 MOL       0.0000
   1359 H399         2.4613     7.4212    26.0989 H         1 MOL       0.0000
   1360 H400        10.9475    11.8583    13.3096 H         1 MOL       0.0000
   1361 H401         8.4874     4.3621    18.9967 H         1 MOL       0.0000
   1362 H402         5.8770    16.2827    20.4003 H         1 MOL       0.0000
   1363 H403        -1.1309    10.8725    22.1270 H         1 MOL       0.0000
   1364 H404        15.5778    10.0166    17.3156 H         1 MOL       0.0000
   1365 H405         1.1702     9.4251    18.7932 H         1 MOL       0.0000
   1366 H406         3.5018    17.9519    17.2302 H         1 MOL       0.0000
   1367 H407         6.9941    19.2268    15.7325 H         1 MOL       0.0000
   1368 H408        13.4740     6.1761    16.5328 H         1 MOL       0.0000
   1369 H409         9.6931    14.1258    15.4428 H         1 MOL       0.0000
   1370 H410         5.0085     7.1320    23.8480 H         1 MOL       0.0000
   1371 H411        12.2122     6.9641    22.8975 H         1 MOL       0.0000
   1372 H412        10.7311     6.4950    23.6448 H         1 MOL       0.0000
   1373 H413        12.7863    11.3977    21.7985 H         1 MOL       0.0000
   1374 H414        12.2166    11.7563    20.1800 H         1 MOL       0.0000
   1375 H415        11.7234     2.0092    22.7074 H         1 MOL       0.0000
   1376 H416        10.4442     3.1098    23.1648 H         1 MOL       0.0000
   1377 C435        13.4011    11.3597    17.8731 C         1 MOL       0.0000
   1378 C436         1.0320     9.4811    21.5274 C         1 MOL       0.0000
   1379 C437         8.6698     4.2729    21.6297 C         1 MOL       0.0000
   1380 C438         5.6643    16.4162    17.7407 C         1 MOL       0.0000
   1381 C439        14.2971    10.7554    18.8683 C         1 MOL       0.0000
   1382 C440         0.1001    10.1062    20.5503 C         1 MOL       0.0000
   1383 C441         9.6100     3.6585    20.6825 C         1 MOL       0.0000
   1384 C442         4.7745    17.0630    18.7405 C         1 MOL       0.0000
   1385 C443        14.0483    10.8303    20.2747 C         1 MOL       0.0000
   1386 C444         0.3165     9.9862    19.1623 C         1 MOL       0.0000
   1387 C445        10.7394     2.8982    21.1356 C         1 MOL       0.0000
   1388 C446         3.6798    17.8360    18.2956 C         1 MOL       0.0000
   1389 C447         5.0290    16.8923    20.0954 C         1 MOL       0.0000
   1390 C448         9.3622     3.7906    19.2986 C         1 MOL       0.0000
   1391 C449        15.4308    10.0564    18.3926 C         1 MOL       0.0000
   1392 C450        -1.0001    10.7986    21.0490 C         1 MOL       0.0000
   1393 C451        13.6128     8.2740    13.1862 C         1 MOL       0.0000
   1394 C452         7.1431    20.0656    13.2112 C         1 MOL       0.0000
   1395 C453        11.4623     6.9711    26.1552 C         1 MOL       0.0000
   1396 C454        -1.8960     8.5135    26.1358 C         1 MOL       0.0000
   1397 C455         8.3472    12.1025    18.7460 C         1 MOL       0.0000
   1398 C456         3.5911     5.0082    20.6641 C         1 MOL       0.0000
   1399 C457         8.8420     2.6628    26.2580 C         1 MOL       0.0000
   1400 C458         7.0504    18.6321    13.1737 C         1 MOL       0.0000
   1401 C459        10.1645     6.3543    26.2020 C         1 MOL       0.0000
   1402 C460        -0.4937     8.9279    26.1603 C         1 MOL       0.0000
   1403 C461        13.6522     7.6049    14.4159 C         1 MOL       0.0000
   1404 C462         2.5054    13.7053    25.0688 C         1 MOL       0.0000
   1405 C463         0.7526    14.8689    14.2041 C         1 MOL       0.0000
   1406 C464        -2.5288     8.2838    24.9073 C         1 MOL       0.0000
   1407 C465        12.1569     7.2394    24.9218 C         1 MOL       0.0000
   1408 C466         2.0418    15.3491    14.2533 C         1 MOL       0.0000
   1409 C467         8.9947     0.4675    25.0709 C         1 MOL       0.0000
   1410 C468        13.6739     6.2038    14.4975 C         1 MOL       0.0000
   1411 N71         13.7289     5.6049    15.7356 N         1 MOL       0.0000
   1412 N72         11.5779     7.0566    23.6828 N         1 MOL       0.0000
   1413 N73         12.9675    11.4766    20.8060 N         1 MOL       0.0000
   1414 N74         11.0704     2.7400    22.4530 N         1 MOL       0.0000
   1415 O281        12.2248    11.7648    18.2389 O         1 MOL       0.0000
   1416 O282         1.8010     8.5303    21.1291 O         1 MOL       0.0000
   1417 O283         9.0512     4.3973    22.8508 O         1 MOL       0.0000
   1418 O284         5.5985    16.8459    16.5412 O         1 MOL       0.0000
   1419 O285         6.4348    15.4590    18.1272 O         1 MOL       0.0000
   1420 O286         7.4993     4.6413    21.2242 O         1 MOL       0.0000
   1421 O287        13.8130    11.4405    16.6614 O         1 MOL       0.0000
   1422 O288         0.9900     9.9174    22.7271 O         1 MOL       0.0000
   1423 O289        11.1404    11.1856    15.6624 O         1 MOL       0.0000
   1424 O290         3.4942     9.0442    23.2274 O         1 MOL       0.0000
   1425 O291        12.0792    13.4729    16.1123 O         1 MOL       0.0000
   1426 O292         1.7420     7.3195    23.7201 O         1 MOL       0.0000
   1427 O293         6.3486     4.1116    23.8148 O         1 MOL       0.0000
   1428 O294         8.1170    16.0070    16.0429 O         1 MOL       0.0000
   1429 O295         7.3025     6.3731    23.3507 O         1 MOL       0.0000
   1430 O296         6.4108    14.2499    15.5255 O         1 MOL       0.0000
   1431 O297         9.5683    11.9226    18.3917 O         1 MOL       0.0000
   1432 O298         2.9334     6.0431    21.0423 O         1 MOL       0.0000
   1433 O299         8.7198     3.2574    25.1169 O         1 MOL       0.0000
   1434 O300         6.9673    17.9306    14.2689 O         1 MOL       0.0000
   1435 O301         9.5219     6.0455    25.1118 O         1 MOL       0.0000
   1436 O302         4.7313    16.0949    14.2088 O         1 MOL       0.0000
   1437 O303         4.7529     4.7136    21.1219 O         1 MOL       0.0000
   1438 O304         7.6053    13.0234    18.2526 O         1 MOL       0.0000
   1439 O305        14.2601    13.1201    14.2550 O         1 MOL       0.0000
   1440 O306         0.1058     9.1597    25.0428 O         1 MOL       0.0000
   1441 O307        13.4645    10.3658    14.2844 O         1 MOL       0.0000
   1442 O308         2.3740    10.9420    25.1241 O         1 MOL       0.0000
   1443 O309         9.3322    13.5771    16.1634 O         1 MOL       0.0000
   1444 O310         4.6303     6.5733    23.1445 O         1 MOL       0.0000
   1445 O311        11.7863    12.3519    13.2306 O         1 MOL       0.0000
   1446 O312         2.5837     8.3880    26.1589 O         1 MOL       0.0000
   1447 H417         8.5498     8.4541    21.6512 H         1 MOL       0.0000
   1448 H418        -1.7546    17.6054    19.2348 H         1 MOL       0.0000
   1449 H419         9.3027    17.2032    18.7201 H         1 MOL       0.0000
   1450 H420         9.5450     9.9959    19.9353 H         1 MOL       0.0000
   1451 H421         4.8901    10.7161    21.5552 H         1 MOL       0.0000
   1452 H422        16.9765     4.3353    20.1433 H         1 MOL       0.0000
   1453 H423         6.2221     8.8200    22.4211 H         1 MOL       0.0000
   1454 H424         5.8911    12.2620    19.8420 H         1 MOL       0.0000
   1455 H425        10.6394    15.4350    17.5984 H         1 MOL       0.0000
   1456 H426        13.0961    15.3411    17.8853 H         1 MOL       0.0000
   1457 C469         7.7710    11.2095    19.7824 C         1 MOL       0.0000
   1458 C470         6.6620     9.4961    21.6894 C         1 MOL       0.0000
   1459 C471        11.1367    16.1687    18.2320 C         1 MOL       0.0000
   1460 C472         2.9338     4.0345    19.7613 C         1 MOL       0.0000
   1461 C473         6.4574    11.4220    20.2385 C         1 MOL       0.0000
   1462 C474         7.9761     9.2891    21.2521 C         1 MOL       0.0000
   1463 C475        10.3839    17.1771    18.8450 C         1 MOL       0.0000
   1464 C476        -2.8334    17.6254    19.0971 C         1 MOL       0.0000
   1465 C477        12.5247    16.1146    18.3957 C         1 MOL       0.0000
   1466 C478        17.5404     3.5372    19.6668 C         1 MOL       0.0000
   1467 C479         8.5307    10.1440    20.2990 C         1 MOL       0.0000
   1468 C480         5.9050    10.5637    21.1908 C         1 MOL       0.0000
   1469 N75         10.2401    17.7204    14.3931 N         1 MOL       0.0000
   1470 N76          6.9527     9.7296    26.0057 N         1 MOL       0.0000
   1471 C481        10.0910    18.3998    13.1771 C         1 MOL       0.0000
   1472 C482         6.2551    10.7214    25.3413 C         1 MOL       0.0000
   1473 C483         9.2453     9.6998    24.9995 C         1 MOL       0.0000
   1474 C484         9.7682    18.2413    15.7153 C         1 MOL       0.0000
   1475 C485        11.2263    16.8105    14.2141 C         1 MOL       0.0000
   1476 C486         8.0152     8.8946    25.4076 C         1 MOL       0.0000
   1477 H427         4.9313    12.2794    26.1865 H         1 MOL       0.0000
   1478 H428         6.3840    10.9129    24.2795 H         1 MOL       0.0000
   1479 H429         8.9885    10.4954    24.2865 H         1 MOL       0.0000
   1480 H430         9.3896    19.2601    15.5680 H         1 MOL       0.0000
   1481 H431         9.7215    10.1771    25.8635 H         1 MOL       0.0000
   1482 H432         9.0305    17.5859    16.1411 H         1 MOL       0.0000
   1483 H433         9.9686     9.0324    24.5126 H         1 MOL       0.0000
   1484 H434         7.5714     8.3722    24.5503 H         1 MOL       0.0000
   1485 H435        10.6058    18.3091    16.4122 H         1 MOL       0.0000
   1486 H436        11.7501    16.2753    14.9953 H         1 MOL       0.0000
   1487 H437         8.2499     8.1324    26.1575 H         1 MOL       0.0000
   1488 N77         18.2411     6.5040    13.3528 N         1 MOL       0.0000
   1489 C487         5.1963     7.4432    14.8419 C         1 MOL       0.0000
   1490 C488        14.5634     1.2128    24.1048 C         1 MOL       0.0000
   1491 O313        18.6452     6.4776    15.8297 O         1 MOL       0.0000
   1492 O314        13.3464    18.7030    14.4312 O         1 MOL       0.0000
   1493 O315         6.1011    13.6523    24.1210 O         1 MOL       0.0000
   1494 O316         8.7027    13.0900    23.4394 O         1 MOL       0.0000
   1495 F85          4.8253     8.9359    15.2512 F         1 MOL       0.0000
   1496 F86         15.2395     2.6421    24.9300 F         1 MOL       0.0000
   1497 F87          6.6268     8.0969    14.0625 F         1 MOL       0.0000
   1498 F88          4.7118     6.9521    16.7521 F         1 MOL       0.0000
   1499 F89         13.4256     2.0215    23.7916 F         1 MOL       0.0000
   1500 F90          7.5434    15.2352    22.1779 F         1 MOL       0.0000
   1501 S29         12.6476    20.2954    14.4764 S         1 MOL       0.0000
   1502 S30          7.4356    13.8809    24.5903 S         1 MOL       0.0000
   1503 N78          7.9373     8.4838    16.3169 N         1 MOL       0.0000
   1504 N79          6.0754     9.2252    17.2703 N         1 MOL       0.0000
   1505 C489         8.9039     8.1200    15.2308 C         1 MOL       0.0000
   1506 C490         6.8680     9.2800    16.1686 C         1 MOL       0.0000
   1507 C491         7.8233     7.8488    17.5542 C         1 MOL       0.0000
   1508 C492         8.7383     6.7566    14.5289 C         1 MOL       0.0000
   1509 C493         6.6666     8.2984    18.1294 C         1 MOL       0.0000
   1510 C494         4.6241     9.5953    17.3966 C         1 MOL       0.0000
   1511 H438         9.8938     8.1831    15.6965 H         1 MOL       0.0000
   1512 H439         8.8402     8.9434    14.5059 H         1 MOL       0.0000
   1513 H440         6.6666     9.8209    15.2488 H         1 MOL       0.0000
   1514 H441         9.6200     6.5603    13.9062 H         1 MOL       0.0000
   1515 H442         8.6077     7.2110    17.9331 H         1 MOL       0.0000
   1516 H443         4.4601    10.2174    18.2697 H         1 MOL       0.0000
   1517 H444         4.2778    10.1200    16.5048 H         1 MOL       0.0000
   1518 H445         8.5738     5.9412    15.2395 H         1 MOL       0.0000
   1519 H446         6.1955     8.0479    19.0670 H         1 MOL       0.0000
   1520 H447         7.8860     6.7246    13.8560 H         1 MOL       0.0000
   1521 H448         4.0456     8.6483    17.4163 H         1 MOL       0.0000
   1522 N80          4.2004     7.5264    14.2790 N         1 MOL       0.0000
   1523 C495        19.1925     5.0261    16.3569 C         1 MOL       0.0000
   1524 C496        14.5140     0.4062    25.4243 C         1 MOL       0.0000
   1525 O317         5.4967     9.9973    13.4152 O         1 MOL       0.0000
   1526 O318        -0.2235    20.0259    15.7269 O         1 MOL       0.0000
   1527 O319         1.1192     0.6657    25.1727 O         1 MOL       0.0000
   1528 O320        -1.0069    19.9665    13.2653 O         1 MOL       0.0000
   1529 F91         18.6895     5.4615    17.5679 F         1 MOL       0.0000
   1530 F92         13.1104     1.0610    26.0522 F         1 MOL       0.0000
   1531 F93         11.3978    19.3932    15.0727 F         1 MOL       0.0000
   1532 F94         12.6243    18.2278    16.5932 F         1 MOL       0.0000
   1533 F95         15.3613     0.8336    23.8370 F         1 MOL       0.0000
   1534 F96          8.0518    13.0025    25.1205 F         1 MOL       0.0000
   1535 S31          0.3976     1.5613    26.1314 S         1 MOL       0.0000
   1536 S32         -1.3774    20.3847    14.8139 S         1 MOL       0.0000
@<TRIPOS>BOND
     1     1    78 1
     2     1    96 1
     3     7    88 1
     4     7   100 1
     5     1     7 1
     6     1    80 1
     7     1    82 1
     8     7    72 1
     9     7    80 1
    10     7    82 1
    11     1   102 1
    12     1   197 1
    13     1    98 1
    14     2     8 1
    15     2    79 1
    16     2    81 1
    17     2   101 1
    18     2    97 1
    19     2    77 1
    20     2    95 1
    21     3    93 1
    22     3   100 1
    23     3    76 1
    24     3    83 1
    25     3    85 1
    26     3     6 1
    27     4    86 1
    28     4    94 1
    29     4     5 1
    30     4    84 1
    31     4    75 1
    32     4    99 1
    33     5    92 1
    34     5    86 1
    35     5    74 1
    36     5    84 1
    37     5    90 1
    38     6    83 1
    39     6    85 1
    40     6   194 1
    41     6   293 1
    42   194   293 1
    43   208   293 1
    44   194   200 1
    45   194   271 1
    46   194   273 1
    47     6    73 1
    48     6    89 1
    49     6    91 1
    50   194   287 1
    51   194   289 1
    52   194   269 1
    53     8    79 1
    54     8    81 1
    55     8    99 1
    56    16   101 1
    57    25    99 1
    58     8    71 1
    59     8    87 1
    60     9    60 1
    61    59    66 1
    62    10    59 1
    63    49    59 1
    64    34    38 1
    65    34    78 1
    66    11    62 1
    67    34    72 1
    68    12   829 1
    69   829   832 1
    70    31    70 1
    71    32    70 1
    72    43    70 1
    73    13    65 1
    74    14    64 1
    75   197   284 1
    76   197   266 1
    77    15   102 1
    78   102   197 1
    79   197   276 1
    80   197   278 1
    81   197   282 1
    82    17    46 1
    83    36    40 1
    84    45   427 1
    85    36    74 1
    86    18    45 1
    87    36    75 1
    88    19    48 1
    89    20    47 1
    90    47   810 1
    91    21    42 1
    92   166   173 1
    93   166   172 1
    94   166   177 1
    95    22    44 1
    96    40    44 1
    97    44   430 1
    98    40    45 1
    99    56    90 1
   100    23   451 1
   101    50    56 1
   102    50   450 1
   103   408   451 1
   104   450   451 1
   105    24    67 1
   106    66    67 1
   107    26   100 1
   108   118   123 1
   109   103   118 1
   110   107   124 1
   111   109   114 1
   112   114   118 1
   113   114   124 1
   114    35    76 1
   115    39    43 1
   116    39    46 1
   117    35    39 1
   118    35    73 1
   119    27    68 1
   120    28    68 1
   121    29    69 1
   122    30    69 1
   123    33    71 1
   124    37    47 1
   125    41   816 1
   126    33    77 1
   127    33    37 1
   128    37    41 1
   129    41    69 1
   130    38    42 1
   131    38    48 1
   132    51    57 1
   133    57    91 1
   134    57   287 1
   135    51    63 1
   136    51  1021 1
   137    52    58 1
   138    52    62 1
   139    52   256 1
   140    58    96 1
   141    58   284 1
   142   113   123 1
   143   117   124 1
   144    53    94 1
   145    53   113 1
   146   110   117 1
   147   113   117 1
   148    53    87 1
   149    54   116 1
   150    54    88 1
   151    54    93 1
   152   251   258 1
   153    55   241 1
   154    65   241 1
   155   241   251 1
   156    55    89 1
   157    55   289 1
   158    60   242 1
   159    98   248 1
   160   242   248 1
   161   242   642 1
   162   248   282 1
   163   642   643 1
   164    60   449 1
   165    61    64 1
   166   129   132 1
   167    63    68 1
   168   129   135 1
   169   129   137 1
   170   129   139 1
   171    63   830 1
   172  1021  1024 1
   173   104   120 1
   174   105   119 1
   175   111   115 1
   176   115   119 1
   177   119   506 1
   178   115   121 1
   179   506  1268 1
   180   106   123 1
   181   108   122 1
   182   122   884 1
   183   112   121 1
   184   121   888 1
   185   872   888 1
   186   888  1268 1
   187   120   500 1
   188   160   166 1
   189   160   162 1
   190   160   165 1
   191   163   165 1
   192   165   175 1
   193   163   171 1
   194   125   131 1
   195   131   142 1
   196   125   127 1
   197   125   130 1
   198   126   128 1
   199   126   132 1
   200   126   323 1
   201   132   140 1
   202   132   143 1
   203   317   323 1
   204   323   334 1
   205   128   134 1
   206   128   319 1
   207   317   319 1
   208   317   322 1
   209   130   138 1
   210   130   136 1
   211   130   141 1
   212   531   563 1
   213   133   319 1
   214   158   190 1
   215   158   720 1
   216   349   720 1
   217   349   379 1
   218   349   723 1
   219   349   755 1
   220   158   530 1
   221   158   564 1
   222   349  1152 1
   223   349  1522 1
   224   149   158 1
   225   147   179 1
   226   179   185 1
   227   145   151 1
   228   145   178 1
   229   145   153 1
   230   159   162 1
   231   162   169 1
   232   159   163 1
   233   159   161 1
   234   146   155 1
   235   146   189 1
   236   146   180 1
   237   157   187 1
   238   157   528 1
   239   157   531 1
   240   563   569 1
   241   148   157 1
   242   148   960 1
   243   157   563 1
   244   157   960 1
   245   157  1330 1
   246   950   960 1
   247   952   960 1
   248   960  1297 1
   249   960  1330 1
   250  1297  1330 1
   251  1297  1303 1
   252  1297  1305 1
   253   150   158 1
   254   180   336 1
   255   180   186 1
   256   180   959 1
   257   415   454 1
   258   530   539 1
   259   530   564 1
   260   530   573 1
   261   161   164 1
   262   161   167 1
   263   161   168 1
   264   164   174 1
   265   164   176 1
   266   164   170 1
   267   182   192 1
   268   184   192 1
   269   192   529 1
   270   192   562 1
   271   183   191 1
   272   356   366 1
   273   356   368 1
   274   356   362 1
   275   188   563 1
   276   191   337 1
   277   191   370 1
   278   191   373 1
   279   337   370 1
   280   337   343 1
   281   191   345 1
   282   337   345 1
   283   193   270 1
   284   193   274 1
   285   193   288 1
   286   193   199 1
   287   193   272 1
   288   193   294 1
   289   207   294 1
   290   218   292 1
   291   193   290 1
   292   195   285 1
   293   195   292 1
   294   195   268 1
   295   195   198 1
   296   195   275 1
   297   195   277 1
   298   198   265 1
   299   198   275 1
   300   198   277 1
   301   198   281 1
   302   198   283 1
   303   196   286 1
   304   196   291 1
   305   196   197 1
   306   196   267 1
   307   196   276 1
   308   196   278 1
   309   297   311 1
   310   199   264 1
   311   199   274 1
   312   199   280 1
   313   199   272 1
   314   199   292 1
   315   200   291 1
   316   200   263 1
   317   200   271 1
   318   200   273 1
   319   200   279 1
   320   201   252 1
   321   252   641 1
   322   202   251 1
   323   212   239 1
   324   239  1002 1
   325   203   254 1
   326   244   254 1
   327   244   250 1
   328   204  1021 1
   329   205   257 1
   330   247   281 1
   331   206   256 1
   332   228   232 1
   333   228   266 1
   334   232   237 1
   335   232   236 1
   336   228   267 1
   337   209   238 1
   338   227   268 1
   339   227   265 1
   340   227   231 1
   341   210   237 1
   342   211   240 1
   343   213   234 1
   344   226   230 1
   345   226   264 1
   346   230   234 1
   347   226   270 1
   348   230   240 1
   349   214   236 1
   350   236   622 1
   351   215   643 1
   352   600   643 1
   353   216   259 1
   354   217   291 1
   355   303   307 1
   356   304   313 1
   357   307   313 1
   358   307   311 1
   359   313  1080 1
   360   243   249 1
   361   219   260 1
   362   243   255 1
   363   255   260 1
   364   255  1022 1
   365   224   262 1
   366   249   283 1
   367   220   260 1
   368   221   261 1
   369   222   261 1
   370   223   262 1
   371   225   263 1
   372   225   269 1
   373   225   229 1
   374   233   261 1
   375   229   239 1
   376   233  1008 1
   377   979  1008 1
   378   229   233 1
   379   231   238 1
   380   235   262 1
   381   231   235 1
   382   237   619 1
   383   619   646 1
   384   245   286 1
   385   245   305 1
   386   245   279 1
   387   246   280 1
   388   246   285 1
   389   246   308 1
   390   250   288 1
   391   253   256 1
   392   258   259 1
   393   295   310 1
   394   301   306 1
   395   306   310 1
   396   310   315 1
   397   306   316 1
   398   296   312 1
   399   298   315 1
   400   299   316 1
   401   300   314 1
   402   305   315 1
   403   302   309 1
   404   305   309 1
   405   309   316 1
   406   311   698 1
   407  1080  1460 1
   408   312   692 1
   409   314  1076 1
   410  1014  1048 1
   411  1014  1076 1
   412  1014  1053 1
   413   318   324 1
   414   321   324 1
   415   324   332 1
   416   324   335 1
   417   318   320 1
   418   321   327 1
   419   321   329 1
   420   321   331 1
   421   320   326 1
   422   341   350 1
   423   342   350 1
   424   350   382 1
   425   350   722 1
   426   350   756 1
   427   322   330 1
   428   322   328 1
   429   322   333 1
   430   380   755 1
   431   723   755 1
   432   755   761 1
   433   372   378 1
   434   338   347 1
   435   338   372 1
   436   338   381 1
   437   372  1151 1
   438   339   371 1
   439   371   377 1
   440   340   349 1
   441   340  1152 1
   442  1144  1152 1
   443  1152  1489 1
   444  1152  1522 1
   445  1489  1497 1
   446  1489  1522 1
   447  1489  1495 1
   448   358   364 1
   449   358   365 1
   450   358   369 1
   451   352   358 1
   452   353   356 1
   453   353   360 1
   454   351   353 1
   455   351   354 1
   456   351   355 1
   457   352   354 1
   458   352   357 1
   459   354   361 1
   460   355   357 1
   461   355   363 1
   462   357   367 1
   463   353   359 1
   464   374   384 1
   465   375   383 1
   466   384   754 1
   467   376   384 1
   468   384   721 1
   469   418   422 1
   470   385   480 1
   471   385   466 1
   472   391   466 1
   473   391   472 1
   474   385   391 1
   475   385   462 1
   476   385   464 1
   477   391   456 1
   478   391   464 1
   479   418   456 1
   480   418   462 1
   481   385   482 1
   482   385   486 1
   483   385   581 1
   484   391   484 1
   485   386   392 1
   486   386   463 1
   487   386   481 1
   488   386   461 1
   489   386   465 1
   490   386   479 1
   491   386   485 1
   492   387   460 1
   493   387   467 1
   494   387   469 1
   495   387   477 1
   496   387   484 1
   497   410   484 1
   498   387   390 1
   499   388   470 1
   500   388   478 1
   501   388   389 1
   502   388   459 1
   503   388   483 1
   504   388   468 1
   505   389   470 1
   506   389   458 1
   507   389   474 1
   508   389   476 1
   509   389   468 1
   510   390   467 1
   511   390   469 1
   512   390   677 1
   513   578   677 1
   514   578   584 1
   515   578   655 1
   516   578   657 1
   517   390   473 1
   518   578   673 1
   519   390   457 1
   520   390   475 1
   521   390   578 1
   522   441   475 1
   523   441   671 1
   524   578   671 1
   525   578   653 1
   526   392   463 1
   527   392   483 1
   528   409   483 1
   529   392   471 1
   530   392   465 1
   531   400   485 1
   532   392   455 1
   533   393   444 1
   534   443   450 1
   535   394   443 1
   536   433   443 1
   537   403   432 1
   538   395   446 1
   539   396  1213 1
   540  1213  1216 1
   541   416   454 1
   542   427   454 1
   543   397   449 1
   544   398   448 1
   545   581   668 1
   546   581   662 1
   547   399   486 1
   548   486   581 1
   549   581   666 1
   550   581   650 1
   551   581   660 1
   552   482   632 1
   553   423   427 1
   554   401   430 1
   555   423   430 1
   556   424   428 1
   557   420   458 1
   558   402   429 1
   559   420   424 1
   560   420   459 1
   561   424   429 1
   562  1190  1200 1
   563   404   431 1
   564   431  1194 1
   565  1173  1194 1
   566  1190  1194 1
   567   405   426 1
   568   406   428 1
   569   434   440 1
   570   411   452 1
   571   419   460 1
   572   419   423 1
   573   419   457 1
   574   412   452 1
   575   413   453 1
   576   417   421 1
   577   417   461 1
   578   417   455 1
   579   414   453 1
   580   421   425 1
   581   425  1200 1
   582   425   453 1
   583   421   431 1
   584   422   432 1
   585   422   426 1
   586   435   441 1
   587   447   452 1
   588   435   447 1
   589   435  1405 1
   590   447  1214 1
   591  1405  1408 1
   592   436   442 1
   593   436   446 1
   594   436   640 1
   595   442   480 1
   596   442   668 1
   597   437   478 1
   598   497   501 1
   599   497   507 1
   600   437   471 1
   601   437   497 1
   602   438   500 1
   603   438   472 1
   604   438   477 1
   605   635   642 1
   606   439   473 1
   607   439   625 1
   608   439   673 1
   609   449   625 1
   610   625   635 1
   611   440   474 1
   612   632   666 1
   613   444   626 1
   614   626   632 1
   615   445   448 1
   616   509   511 1
   617   509   514 1
   618   509   515 1
   619   514   522 1
   620   514   525 1
   621   514   520 1
   622   515   526 1
   623   501   508 1
   624   494   501 1
   625   502   507 1
   626   487   502 1
   627   488   504 1
   628   489   503 1
   629   495   499 1
   630   499   503 1
   631   499   505 1
   632   547   549 1
   633   547   555 1
   634   490   507 1
   635   491   508 1
   636   493   498 1
   637   498   508 1
   638   498   502 1
   639   492   506 1
   640   496   505 1
   641   505  1272 1
   642  1256  1272 1
   643   512   518 1
   644   510   512 1
   645   510   707 1
   646   701   707 1
   647   707   718 1
   648   512   703 1
   649   701   703 1
   650   701   706 1
   651   510   516 1
   652   516   524 1
   653   513   519 1
   654   513   516 1
   655   513   521 1
   656   513   523 1
   657   516   527 1
   658   517   703 1
   659   542   574 1
   660   529   535 1
   661   529   537 1
   662   529   562 1
   663   546   553 1
   664   532   541 1
   665   532  1344 1
   666   541   571 1
   667   541  1344 1
   668  1336  1344 1
   669   533   542 1
   670   534   542 1
   671  1343  1489 1
   672  1335  1343 1
   673  1343  1497 1
   674  1343  1522 1
   675  1343  1525 1
   676   543   546 1
   677   545   548 1
   678   543   545 1
   679   545   551 1
   680   545   552 1
   681   543   547 1
   682   544   546 1
   683   550   557 1
   684   544   549 1
   685   544   550 1
   686   549   559 1
   687   550   556 1
   688   550   561 1
   689   548   554 1
   690   548   558 1
   691   548   560 1
   692   564   720 1
   693   564   570 1
   694   564  1343 1
   695   566   576 1
   696   568   576 1
   697   575   754 1
   698   721   754 1
   699   567   575 1
   700   575   721 1
   701   575   729 1
   702   575   757 1
   703   721   729 1
   704   721   727 1
   705   733   763 1
   706   724   733 1
   707   724  1536 1
   708   733  1536 1
   709  1528  1536 1
   710   577   654 1
   711   577   672 1
   712   577   583 1
   713   577   656 1
   714   577   658 1
   715   577   678 1
   716   591   678 1
   717   577   674 1
   718   579   676 1
   719   579   652 1
   720   579   669 1
   721   579   582 1
   722   579   659 1
   723   579   661 1
   724   593   622 1
   725   616   620 1
   726   580   662 1
   727   580   670 1
   728   580   581 1
   729   580   651 1
   730   580   660 1
   731   612   616 1
   732   612   650 1
   733   612   651 1
   734   616   621 1
   735   580   675 1
   736   582   659 1
   737   582   661 1
   738   582   649 1
   739   582   665 1
   740   582   667 1
   741   610   614 1
   742   610   654 1
   743   583   664 1
   744   583   676 1
   745   583   648 1
   746   610   648 1
   747   583   656 1
   748   583   658 1
   749   584   647 1
   750   584   655 1
   751   584   657 1
   752   584   663 1
   753   584   675 1
   754   601   675 1
   755   585   636 1
   756   586   635 1
   757   596   623 1
   758   623  1386 1
   759   587   638 1
   760   628   634 1
   761   628   638 1
   762   634   672 1
   763   588  1405 1
   764   607   646 1
   765   608   646 1
   766   589   641 1
   767   631   665 1
   768   590   640 1
   769   598   620 1
   770   592   677 1
   771   594   621 1
   772   595   624 1
   773   597   618 1
   774   742   748 1
   775   742   749 1
   776   742   753 1
   777   602   676 1
   778   702   708 1
   779   708   716 1
   780   708   719 1
   781   702   704 1
   782   705   708 1
   783   627   633 1
   784   603   644 1
   785   627   639 1
   786   639   644 1
   787   705   711 1
   788   705   713 1
   789   705   715 1
   790   639  1406 1
   791   633   667 1
   792   604   644 1
   793   613   623 1
   794   617  1392 1
   795   605   645 1
   796   613   617 1
   797   617   645 1
   798   606   645 1
   799   609   647 1
   800   609   653 1
   801   609   613 1
   802   611   652 1
   803   615   619 1
   804   611   615 1
   805   615   622 1
   806   611   649 1
   807   614   618 1
   808   614   624 1
   809   629   670 1
   810   629   689 1
   811   629   663 1
   812   630   664 1
   813   630   692 1
   814   630   669 1
   815   637   640 1
   816   679   694 1
   817   682   699 1
   818   680   696 1
   819   687   691 1
   820   681   695 1
   821   691   695 1
   822   691   697 1
   823   683   700 1
   824   693   700 1
   825   686   693 1
   826   689   693 1
   827   689   699 1
   828   684   698 1
   829   698  1460 1
   830  1351  1432 1
   831  1398  1432 1
   832  1398  1460 1
   833  1351  1426 1
   834  1351  1416 1
   835  1351  1424 1
   836  1398  1437 1
   837  1351  1444 1
   838   685   690 1
   839   690   694 1
   840   690   700 1
   841   694   699 1
   842   688   697 1
   843   697  1464 1
   844   704   710 1
   845   725   734 1
   846   734   766 1
   847   706   714 1
   848   706   712 1
   849   706   717 1
   850   722   731 1
   851   722   756 1
   852   722   765 1
   853   756   762 1
   854   756  1535 1
   855   726   734 1
   856   736   742 1
   857   735   738 1
   858   735   739 1
   859   736   738 1
   860   736   741 1
   861   738   745 1
   862   739   741 1
   863   741   751 1
   864   735   737 1
   865   739   747 1
   866   737   740 1
   867   737   744 1
   868   737   743 1
   869   740   752 1
   870   740   746 1
   871   740   750 1
   872   758   768 1
   873   759   767 1
   874   760   768 1
   875  1526  1536 1
   876   965  1052 1
   877   769   775 1
   878   769   850 1
   879   965  1046 1
   880   769   846 1
   881   769   848 1
   882   769   864 1
   883   769   866 1
   884   769   870 1
   885   769   965 1
   886   870   965 1
   887   965  1050 1
   888   965  1034 1
   889   965  1044 1
   890   866  1016 1
   891   770   847 1
   892   770   776 1
   893   770   865 1
   894   770   845 1
   895   770   849 1
   896   770   863 1
   897   770   869 1
   898   771   844 1
   899   771   851 1
   900   771   853 1
   901   771   861 1
   902   771   868 1
   903   794   868 1
   904   771   774 1
   905   772   854 1
   906   772   773 1
   907   772   843 1
   908   772   867 1
   909   793   867 1
   910   772   862 1
   911   772   852 1
   912   784   869 1
   913   773   854 1
   914   773   842 1
   915   773   858 1
   916   773   860 1
   917   824   858 1
   918   773   852 1
   919   774   851 1
   920   774   853 1
   921   774  1061 1
   922   774   857 1
   923   774   841 1
   924   774   859 1
   925   825   859 1
   926   825  1055 1
   927   774   962 1
   928   822   884 1
   929   775   850 1
   930   775   856 1
   931   822   856 1
   932   775   840 1
   933   775   848 1
   934   775   868 1
   935   822   861 1
   936   776   847 1
   937   821   881 1
   938   776   867 1
   939   776   855 1
   940   821   855 1
   941   821   862 1
   942   776   849 1
   943   776   839 1
   944   777   828 1
   945   827   834 1
   946   778   827 1
   947   817   827 1
   948   787   816 1
   949   779   830 1
   950   807   814 1
   951   800   838 1
   952   807   811 1
   953   811   838 1
   954   781   833 1
   955   782   832 1
   956   783   870 1
   957   785   814 1
   958   808   812 1
   959   804   842 1
   960   786   813 1
   961   804   808 1
   962   804   843 1
   963   808   813 1
   964   813  1195 1
   965   788   815 1
   966   789   810 1
   967   790   812 1
   968   812  1198 1
   969   818   824 1
   970   791  1219 1
   971   818  1218 1
   972  1176  1219 1
   973  1211  1218 1
   974  1218  1219 1
   975   792   835 1
   976   834   835 1
   977   795   836 1
   978   803   844 1
   979   803   807 1
   980   803   841 1
   981   796   836 1
   982   797   837 1
   983   801   805 1
   984   801   845 1
   985   801   839 1
   986   798   837 1
   987   799   838 1
   988   914   923 1
   989   914   948 1
   990   914   957 1
   991   806   816 1
   992   806   810 1
   993   802   806 1
   994   802   840 1
   995   802   846 1
   996   805   809 1
   997   809   837 1
   998   805   815 1
   999   819   825 1
  1000   831   836 1
  1001   819   831 1
  1002   820   826 1
  1003   820   830 1
  1004   820  1024 1
  1005   826  1052 1
  1006   826   864 1
  1007  1019  1026 1
  1008   823   857 1
  1009   823  1009 1
  1010   823  1057 1
  1011   833  1009 1
  1012  1009  1019 1
  1013  1016  1050 1
  1014   828  1010 1
  1015  1010  1016 1
  1016  1010  1410 1
  1017  1410  1411 1
  1018   828  1217 1
  1019   927   930 1
  1020   929   932 1
  1021   927   929 1
  1022   929   935 1
  1023   929   936 1
  1024   927   931 1
  1025   893   895 1
  1026   893   898 1
  1027   893   899 1
  1028   898   906 1
  1029   898   909 1
  1030   898   904 1
  1031   899   910 1
  1032   886   891 1
  1033   871   886 1
  1034   873   887 1
  1035   879   883 1
  1036   883   887 1
  1037   887  1274 1
  1038   883   889 1
  1039   931   933 1
  1040   881   885 1
  1041   931   939 1
  1042   874   891 1
  1043   881   891 1
  1044   875   892 1
  1045   877   882 1
  1046   882   892 1
  1047   882   886 1
  1048   876   890 1
  1049   885   892 1
  1050   878   885 1
  1051   880   889 1
  1052   896   902 1
  1053   894   896 1
  1054   894  1091 1
  1055  1085  1091 1
  1056  1085  1090 1
  1057  1091  1102 1
  1058   896  1087 1
  1059  1085  1087 1
  1060   894   900 1
  1061   900   908 1
  1062   897   903 1
  1063   897   900 1
  1064   897   905 1
  1065   897   907 1
  1066   900   911 1
  1067   901  1087 1
  1068   926  1488 1
  1069   926   958 1
  1070   926  1332 1
  1071   926  1298 1
  1072   916   925 1
  1073   956  1331 1
  1074   915   947 1
  1075   913   946 1
  1076   913   919 1
  1077   913   921 1
  1078   917   926 1
  1079   918   926 1
  1080   930   937 1
  1081  1183  1222 1
  1082  1184  1222 1
  1083  1195  1222 1
  1084   925   955 1
  1085   925  1296 1
  1086   925  1299 1
  1087   925  1331 1
  1088  1299  1331 1
  1089  1331  1337 1
  1090   928   930 1
  1091   934   941 1
  1092   928   933 1
  1093   928   934 1
  1094   933   943 1
  1095   934   940 1
  1096   934   945 1
  1097   932   938 1
  1098   932   942 1
  1099   932   944 1
  1100   947   953 1
  1101   948  1104 1
  1102   948   954 1
  1103   959  1138 1
  1104  1105  1138 1
  1105   951   959 1
  1106   959  1105 1
  1107   959  1113 1
  1108   959  1141 1
  1109  1105  1113 1
  1110  1105  1111 1
  1111  1117  1488 1
  1112  1332  1488 1
  1113  1117  1147 1
  1114  1117  1491 1
  1115  1332  1338 1
  1116  1108  1117 1
  1117  1117  1523 1
  1118   961  1056 1
  1119   967  1048 1
  1120   967  1060 1
  1121   967  1032 1
  1122   961   967 1
  1123   961  1038 1
  1124   961  1040 1
  1125   961  1042 1
  1126   961  1062 1
  1127   967  1040 1
  1128   967  1042 1
  1129   975  1062 1
  1130   961  1058 1
  1131   962  1061 1
  1132   962   968 1
  1133   962  1039 1
  1134   962  1041 1
  1135   993  1031 1
  1136   962  1057 1
  1137   993   997 1
  1138   962  1055 1
  1139   962  1037 1
  1140   993  1037 1
  1141   963  1060 1
  1142   963  1036 1
  1143   963  1053 1
  1144   963   966 1
  1145   963  1043 1
  1146   963  1045 1
  1147   966  1043 1
  1148   966  1045 1
  1149   966  1049 1
  1150   966  1033 1
  1151   966  1051 1
  1152   964  1046 1
  1153   964  1054 1
  1154   964   965 1
  1155   964  1035 1
  1156   964  1044 1
  1157   964  1059 1
  1158   968  1031 1
  1159   968  1039 1
  1160   968  1041 1
  1161   968  1047 1
  1162   968  1059 1
  1163   985  1059 1
  1164   969  1020 1
  1165  1020  1409 1
  1166   970  1019 1
  1167   980  1007 1
  1168   971  1022 1
  1169  1012  1018 1
  1170  1012  1022 1
  1171  1018  1056 1
  1172   973  1025 1
  1173   991  1030 1
  1174   992  1030 1
  1175   974  1024 1
  1176   982  1004 1
  1177  1004  1390 1
  1178   976  1061 1
  1179   995  1036 1
  1180   999  1003 1
  1181   977  1006 1
  1182   995   999 1
  1183   999  1006 1
  1184   995  1033 1
  1185  1000  1004 1
  1186  1005  1387 1
  1187   978  1005 1
  1188  1000  1005 1
  1189   981  1002 1
  1190   994   998 1
  1191   994  1032 1
  1192   994  1038 1
  1193   983  1411 1
  1194  1368  1411 1
  1195   984  1027 1
  1196   986  1060 1
  1197  1086  1088 1
  1198  1086  1092 1
  1199  1092  1100 1
  1200  1092  1103 1
  1201  1088  1094 1
  1202   987  1028 1
  1203   988  1028 1
  1204  1011  1017 1
  1205  1011  1023 1
  1206   989  1029 1
  1207   990  1029 1
  1208   996  1034 1
  1209   996  1035 1
  1210   996  1000 1
  1211   997  1007 1
  1212   997  1001 1
  1213  1001  1029 1
  1214   998  1002 1
  1215   998  1008 1
  1216  1003  1030 1
  1217  1077  1084 1
  1218  1013  1054 1
  1219  1013  1073 1
  1220  1070  1077 1
  1221  1073  1077 1
  1222  1073  1083 1
  1223  1013  1047 1
  1224  1015  1049 1
  1225  1017  1051 1
  1226  1089  1092 1
  1227  1023  1028 1
  1228  1089  1095 1
  1229  1089  1097 1
  1230  1089  1099 1
  1231  1026  1027 1
  1232  1063  1078 1
  1233  1066  1083 1
  1234  1064  1080 1
  1235  1065  1079 1
  1236  1079  1466 1
  1237  1067  1084 1
  1238  1069  1074 1
  1239  1074  1078 1
  1240  1074  1084 1
  1241  1078  1083 1
  1242  1068  1082 1
  1243  1071  1075 1
  1244  1090  1098 1
  1245  1090  1101 1
  1246  1075  1079 1
  1247  1090  1096 1
  1248  1075  1081 1
  1249  1072  1081 1
  1250  1148  1523 1
  1251  1109  1118 1
  1252  1118  1150 1
  1253  1118  1490 1
  1254  1118  1524 1
  1255  1491  1523 1
  1256  1106  1115 1
  1257  1106  1140 1
  1258  1106  1149 1
  1259  1140  1146 1
  1260  1107  1139 1
  1261  1139  1145 1
  1262  1110  1118 1
  1263  1120  1126 1
  1264  1119  1122 1
  1265  1119  1123 1
  1266  1120  1122 1
  1267  1120  1125 1
  1268  1122  1129 1
  1269  1123  1125 1
  1270  1125  1135 1
  1271  1119  1121 1
  1272  1123  1131 1
  1273  1121  1124 1
  1274  1121  1128 1
  1275  1121  1127 1
  1276  1124  1136 1
  1277  1124  1130 1
  1278  1124  1134 1
  1279  1126  1132 1
  1280  1126  1133 1
  1281  1126  1137 1
  1282  1142  1152 1
  1283  1143  1151 1
  1284  1153  1234 1
  1285  1349  1430 1
  1286  1153  1230 1
  1287  1153  1248 1
  1288  1153  1250 1
  1289  1153  1254 1
  1290  1153  1349 1
  1291  1210  1248 1
  1292  1210  1436 1
  1293  1250  1400 1
  1294  1254  1349 1
  1295  1349  1434 1
  1296  1349  1436 1
  1297  1400  1434 1
  1298  1349  1418 1
  1299  1153  1159 1
  1300  1153  1232 1
  1301  1349  1428 1
  1302  1154  1229 1
  1303  1154  1231 1
  1304  1154  1249 1
  1305  1154  1233 1
  1306  1154  1253 1
  1307  1168  1253 1
  1308  1154  1160 1
  1309  1154  1247 1
  1310  1159  1234 1
  1311  1159  1224 1
  1312  1206  1268 1
  1313  1155  1235 1
  1314  1155  1245 1
  1315  1155  1252 1
  1316  1159  1240 1
  1317  1159  1252 1
  1318  1178  1252 1
  1319  1206  1240 1
  1320  1206  1245 1
  1321  1159  1232 1
  1322  1155  1228 1
  1323  1155  1237 1
  1324  1155  1158 1
  1325  1156  1238 1
  1326  1156  1157 1
  1327  1156  1227 1
  1328  1156  1251 1
  1329  1177  1251 1
  1330  1156  1246 1
  1331  1156  1236 1
  1332  1157  1238 1
  1333  1157  1226 1
  1334  1157  1244 1
  1335  1157  1236 1
  1336  1157  1242 1
  1337  1158  1235 1
  1338  1158  1241 1
  1339  1158  1225 1
  1340  1158  1237 1
  1341  1158  1243 1
  1342  1158  1445 1
  1343  1209  1243 1
  1344  1209  1439 1
  1345  1158  1346 1
  1346  1160  1251 1
  1347  1160  1239 1
  1348  1160  1231 1
  1349  1182  1221 1
  1350  1160  1233 1
  1351  1160  1223 1
  1352  1264  1273 1
  1353  1161  1212 1
  1354  1162  1211 1
  1355  1201  1211 1
  1356  1171  1200 1
  1357  1163  1214 1
  1358  1191  1198 1
  1359  1165  1217 1
  1360  1191  1195 1
  1361  1166  1216 1
  1362  1167  1254 1
  1363  1169  1198 1
  1364  1315  1323 1
  1365  1315  1317 1
  1366  1188  1226 1
  1367  1170  1197 1
  1368  1174  1196 1
  1369  1188  1192 1
  1370  1188  1227 1
  1371  1192  1196 1
  1372  1192  1197 1
  1373  1189  1193 1
  1374  1172  1199 1
  1375  1189  1199 1
  1376  1202  1208 1
  1377  1179  1220 1
  1378  1180  1220 1
  1379  1181  1221 1
  1380  1185  1229 1
  1381  1193  1221 1
  1382  1185  1223 1
  1383  1185  1189 1
  1384  1186  1190 1
  1385  1186  1224 1
  1386  1186  1230 1
  1387  1187  1191 1
  1388  1187  1225 1
  1389  1187  1228 1
  1390  1203  1209 1
  1391  1215  1220 1
  1392  1203  1215 1
  1393  1204  1214 1
  1394  1204  1408 1
  1395  1204  1210 1
  1396  1205  1265 1
  1397  1205  1239 1
  1398  1205  1246 1
  1399  1403  1410 1
  1400  1207  1241 1
  1401  1207  1393 1
  1402  1207  1441 1
  1403  1217  1393 1
  1404  1393  1403 1
  1405  1208  1242 1
  1406  1277  1279 1
  1407  1277  1282 1
  1408  1282  1290 1
  1409  1282  1288 1
  1410  1277  1283 1
  1411  1282  1293 1
  1412  1394  1400 1
  1413  1212  1394 1
  1414  1259  1276 1
  1415  1261  1266 1
  1416  1266  1276 1
  1417  1270  1275 1
  1418  1255  1270 1
  1419  1266  1270 1
  1420  1257  1271 1
  1421  1265  1269 1
  1422  1317  1327 1
  1423  1258  1275 1
  1424  1265  1275 1
  1425  1260  1274 1
  1426  1262  1269 1
  1427  1263  1267 1
  1428  1267  1271 1
  1429  1267  1273 1
  1430  1318  1325 1
  1431  1312  1318 1
  1432  1318  1324 1
  1433  1318  1329 1
  1434  1269  1276 1
  1435  1312  1314 1
  1436  1312  1317 1
  1437  1278  1280 1
  1438  1278  1475 1
  1439  1281  1287 1
  1440  1278  1284 1
  1441  1281  1284 1
  1442  1281  1289 1
  1443  1281  1291 1
  1444  1284  1292 1
  1445  1284  1295 1
  1446  1492  1501 1
  1447  1280  1286 1
  1448  1280  1471 1
  1449  1469  1471 1
  1450  1469  1475 1
  1451  1469  1474 1
  1452  1475  1486 1
  1453  1283  1294 1
  1454  1300  1309 1
  1455  1285  1471 1
  1456  1298  1307 1
  1457  1298  1332 1
  1458  1298  1341 1
  1459  1301  1310 1
  1460  1302  1310 1
  1461  1313  1316 1
  1462  1311  1315 1
  1463  1311  1313 1
  1464  1311  1314 1
  1465  1313  1319 1
  1466  1313  1320 1
  1467  1314  1321 1
  1468  1309  1339 1
  1469  1310  1342 1
  1470  1501  1531 1
  1471  1316  1322 1
  1472  1316  1326 1
  1473  1316  1328 1
  1474  1334  1344 1
  1475  1345  1351 1
  1476  1345  1426 1
  1477  1345  1422 1
  1478  1345  1424 1
  1479  1345  1440 1
  1480  1345  1442 1
  1481  1345  1446 1
  1482  1346  1423 1
  1483  1346  1352 1
  1484  1346  1441 1
  1485  1377  1381 1
  1486  1346  1439 1
  1487  1346  1445 1
  1488  1346  1421 1
  1489  1346  1425 1
  1490  1377  1415 1
  1491  1377  1421 1
  1492  1347  1420 1
  1493  1347  1437 1
  1494  1347  1427 1
  1495  1347  1429 1
  1496  1347  1444 1
  1497  1370  1444 1
  1498  1347  1350 1
  1499  1348  1430 1
  1500  1348  1349 1
  1501  1348  1419 1
  1502  1352  1423 1
  1503  1397  1457 1
  1504  1348  1438 1
  1505  1348  1443 1
  1506  1352  1431 1
  1507  1352  1443 1
  1508  1369  1443 1
  1509  1397  1431 1
  1510  1397  1438 1
  1511  1348  1428 1
  1512  1352  1415 1
  1513  1352  1425 1
  1514  1350  1427 1
  1515  1350  1429 1
  1516  1350  1433 1
  1517  1350  1417 1
  1518  1350  1435 1
  1519  1401  1435 1
  1520  1372  1412 1
  1521  1353  1404 1
  1522  1354  1403 1
  1523  1355  1406 1
  1524  1396  1402 1
  1525  1396  1406 1
  1526  1402  1440 1
  1527  1376  1414 1
  1528  1357  1409 1
  1529  1358  1408 1
  1530  1366  1388 1
  1531  1359  1446 1
  1532  1360  1445 1
  1533  1379  1420 1
  1534  1379  1383 1
  1535  1361  1390 1
  1536  1379  1417 1
  1537  1362  1389 1
  1538  1363  1392 1
  1539  1364  1391 1
  1540  1382  1392 1
  1541  1365  1386 1
  1542  1378  1382 1
  1543  1378  1416 1
  1544  1382  1386 1
  1545  1378  1422 1
  1546  1395  1401 1
  1547  1371  1412 1
  1548  1395  1407 1
  1549  1407  1412 1
  1550  1373  1413 1
  1551  1374  1413 1
  1552  1375  1414 1
  1553  1490  1499 1
  1554  1490  1524 1
  1555  1524  1530 1
  1556  1490  1533 1
  1557  1384  1388 1
  1558  1380  1384 1
  1559  1380  1418 1
  1560  1380  1419 1
  1561  1384  1389 1
  1562  1381  1385 1
  1563  1385  1413 1
  1564  1381  1391 1
  1565  1383  1387 1
  1566  1387  1414 1
  1567  1383  1390 1
  1568  1399  1433 1
  1569  1503  1506 1
  1570  1507  1509 1
  1571  1505  1508 1
  1572  1507  1515 1
  1573  1505  1512 1
  1574  1503  1505 1
  1575  1503  1507 1
  1576  1505  1511 1
  1577  1455  1459 1
  1578  1474  1482 1
  1579  1474  1485 1
  1580  1449  1463 1
  1581  1459  1463 1
  1582  1474  1480 1
  1583  1459  1465 1
  1584  1457  1461 1
  1585  1447  1462 1
  1586  1450  1467 1
  1587  1457  1467 1
  1588  1462  1467 1
  1589  1448  1464 1
  1590  1451  1468 1
  1591  1453  1458 1
  1592  1458  1468 1
  1593  1458  1462 1
  1594  1452  1466 1
  1595  1461  1468 1
  1596  1454  1461 1
  1597  1456  1465 1
  1598  1470  1472 1
  1599  1472  1478 1
  1600  1470  1476 1
  1601  1473  1476 1
  1602  1473  1479 1
  1603  1473  1481 1
  1604  1473  1483 1
  1605  1476  1484 1
  1606  1476  1487 1
  1607  1493  1502 1
  1608  1502  1534 1
  1609  1494  1502 1
  1610  1504  1506 1
  1611  1504  1509 1
  1612  1504  1510 1
  1613  1506  1513 1
  1614  1510  1516 1
  1615  1510  1517 1
  1616  1510  1521 1
  1617  1509  1519 1
  1618  1508  1514 1
  1619  1508  1520 1
  1620  1508  1518 1
  1621  1523  1529 1
  1622  1527  1535 1
