@<TRIPOS>MOLECULE
frame0005
 1536 1712 0 0 0
SMALL
NO_CHARGES

@<TRIPOS>ATOM
      1 Ti1         -2.8554     2.2298    11.2464 Ti        1 MOL       0.0000
      2 Ti2          7.9750     5.1110     1.8816 Ti        1 MOL       0.0000
      3 Ti3          1.2412    -1.7064     9.4264 Ti        1 MOL       0.0000
      4 Ti4          2.7524     7.4557     3.6534 Ti        1 MOL       0.0000
      5 Ti5          1.7539     9.1340     1.7490 Ti        1 MOL       0.0000
      6 Ti6          3.1294    -1.9608    11.3798 Ti        1 MOL       0.0000
      7 Ti7         -1.9062     0.4939     9.3549 Ti        1 MOL       0.0000
      8 Ti8          5.9872     5.4135     3.7290 Ti        1 MOL       0.0000
      9 H1          -2.3536     6.1269    11.0269 H         1 MOL       0.0000
     10 H2           8.7838     1.2049     2.2023 H         1 MOL       0.0000
     11 H3          -6.8153     1.4731    10.8640 H         1 MOL       0.0000
     12 H4          11.3572     7.1153     2.0822 H         1 MOL       0.0000
     13 H5           4.1051    -5.9953    10.9939 H         1 MOL       0.0000
     14 H6          -2.3047     8.5441     2.0711 H         1 MOL       0.0000
     15 H7          -2.3867     0.4312    12.9709 H         1 MOL       0.0000
     16 H8           6.0995     4.8683     0.1817 H         1 MOL       0.0000
     17 H9           3.6394    -2.6279     5.8687 H         1 MOL       0.0000
     18 H10          1.0290     9.2927     7.2723 H         1 MOL       0.0000
     19 H11         -5.9789     3.8825     8.9990 H         1 MOL       0.0000
     20 H12         10.7298     3.0266     4.1876 H         1 MOL       0.0000
     21 H13         -3.6778     2.4351     5.6652 H         1 MOL       0.0000
     22 H14         -1.3462    10.9619     4.1022 H         1 MOL       0.0000
     23 H15          2.1461    12.2368     2.6045 H         1 MOL       0.0000
     24 H16          8.6260    -0.8139     3.4048 H         1 MOL       0.0000
     25 H17          4.8451     7.1358     2.3148 H         1 MOL       0.0000
     26 H18          0.1606     0.1420    10.7200 H         1 MOL       0.0000
     27 H19          7.3642    -0.0259     9.7695 H         1 MOL       0.0000
     28 H20          5.8831    -0.4950    10.5168 H         1 MOL       0.0000
     29 H21          7.9383     4.4077     8.6706 H         1 MOL       0.0000
     30 H22          7.3686     4.7663     7.0520 H         1 MOL       0.0000
     31 H23          6.8754    -4.9808     9.5794 H         1 MOL       0.0000
     32 H24          5.5962    -3.8802    10.0368 H         1 MOL       0.0000
     33 C1           8.5531     4.3697     4.7451 C         1 MOL       0.0000
     34 C2          -3.8160     2.4911     8.3994 C         1 MOL       0.0000
     35 C3           3.8218    -2.7171     8.5017 C         1 MOL       0.0000
     36 C4           0.8163     9.4262     4.6128 C         1 MOL       0.0000
     37 C5           9.4491     3.7654     5.7403 C         1 MOL       0.0000
     38 C6          -4.7479     3.1162     7.4223 C         1 MOL       0.0000
     39 C7           4.7619    -3.3315     7.5545 C         1 MOL       0.0000
     40 C8          -0.0735    10.0730     5.6125 C         1 MOL       0.0000
     41 C9           9.2003     3.8403     7.1467 C         1 MOL       0.0000
     42 C10         -4.5315     2.9962     6.0343 C         1 MOL       0.0000
     43 C11          5.8914    -4.0918     8.0076 C         1 MOL       0.0000
     44 C12         -1.1682    10.8460     5.1676 C         1 MOL       0.0000
     45 C13          0.1810     9.9023     6.9674 C         1 MOL       0.0000
     46 C14          4.5142    -3.1993     6.1706 C         1 MOL       0.0000
     47 C15         10.5828     3.0664     5.2646 C         1 MOL       0.0000
     48 C16         -5.8480     3.8086     7.9210 C         1 MOL       0.0000
     49 C17          8.7648     1.2840     0.0582 C         1 MOL       0.0000
     50 C18          2.2951    13.0756     0.0832 C         1 MOL       0.0000
     51 C19          6.6143    -0.0189    13.0272 C         1 MOL       0.0000
     52 C20         -6.7440     1.5235    13.0078 C         1 MOL       0.0000
     53 C21          3.4992     5.1125     5.6180 C         1 MOL       0.0000
     54 C22         -1.2569    -1.9819     7.5361 C         1 MOL       0.0000
     55 C23          3.9940    -4.3272    13.1300 C         1 MOL       0.0000
     56 C24          2.2024    11.6421     0.0457 C         1 MOL       0.0000
     57 C25          5.3165    -0.6357    13.0740 C         1 MOL       0.0000
     58 C26         -5.3417     1.9379    13.0323 C         1 MOL       0.0000
     59 C27          8.8042     0.6149     1.2879 C         1 MOL       0.0000
     60 C28         -2.3426     6.7153    11.9408 C         1 MOL       0.0000
     61 C29         -4.0954     7.8789     1.0761 C         1 MOL       0.0000
     62 C30         -7.3768     1.2938    11.7793 C         1 MOL       0.0000
     63 C31          7.3089     0.2494    11.7938 C         1 MOL       0.0000
     64 C32         -2.8062     8.3591     1.1253 C         1 MOL       0.0000
     65 C33          4.1467    -6.5225    11.9429 C         1 MOL       0.0000
     66 C34          8.8259    -0.7862     1.3695 C         1 MOL       0.0000
     67 N1           8.8810    -1.3851     2.6076 N         1 MOL       0.0000
     68 N2           6.7299     0.0665    10.5548 N         1 MOL       0.0000
     69 N3           8.1195     4.4866     7.6780 N         1 MOL       0.0000
     70 N4           6.2224    -4.2500     9.3250 N         1 MOL       0.0000
     71 O1           7.3768     4.7748     5.1109 O         1 MOL       0.0000
     72 O2          -3.0470     1.5403     8.0011 O         1 MOL       0.0000
     73 O3           4.2032    -2.5927     9.7228 O         1 MOL       0.0000
     74 O4           0.7505     9.8559     3.4131 O         1 MOL       0.0000
     75 O5           1.5868     8.4690     4.9992 O         1 MOL       0.0000
     76 O6           2.6513    -2.3487     8.0962 O         1 MOL       0.0000
     77 O7           8.9650     4.4505     3.5334 O         1 MOL       0.0000
     78 O8          -3.8580     2.9274     9.5991 O         1 MOL       0.0000
     79 O9           6.2924     4.1956     2.5344 O         1 MOL       0.0000
     80 O10         -1.3538     2.0542    10.0994 O         1 MOL       0.0000
     81 O11          7.2312     6.4829     2.9843 O         1 MOL       0.0000
     82 O12         -3.1060     0.3295    10.5921 O         1 MOL       0.0000
     83 O13          1.5006    -2.8784    10.6868 O         1 MOL       0.0000
     84 O14          3.2690     9.0170     2.9149 O         1 MOL       0.0000
     85 O15          2.4545    -0.6169    10.2227 O         1 MOL       0.0000
     86 O16          1.5628     7.2599     2.3975 O         1 MOL       0.0000
     87 O17          4.7203     4.9326     5.2637 O         1 MOL       0.0000
     88 O18         -1.9146    -0.9469     7.9143 O         1 MOL       0.0000
     89 O19          3.8718    -3.7326    11.9889 O         1 MOL       0.0000
     90 O20          2.1193    10.9406     1.1409 O         1 MOL       0.0000
     91 O21          4.6739    -0.9445    11.9838 O         1 MOL       0.0000
     92 O22         -0.1167     9.1049     1.0808 O         1 MOL       0.0000
     93 O23         -0.0951    -2.2764     7.9939 O         1 MOL       0.0000
     94 O24          2.7573     6.0334     5.1246 O         1 MOL       0.0000
     95 O25          9.4121     6.1301     1.1270 O         1 MOL       0.0000
     96 O26         -4.7422     2.1697    11.9148 O         1 MOL       0.0000
     97 O27          8.6166     3.3758     1.1564 O         1 MOL       0.0000
     98 O28         -2.4740     3.9521    11.9961 O         1 MOL       0.0000
     99 O29          4.4842     6.5871     3.0354 O         1 MOL       0.0000
    100 O30         -0.2177    -0.4167    10.0165 O         1 MOL       0.0000
    101 O31          6.9383     5.3620     0.1026 O         1 MOL       0.0000
    102 O32         -2.2643     1.3980    13.0309 O         1 MOL       0.0000
    103 H25          3.7004     1.4614     8.5214 H         1 MOL       0.0000
    104 H26         -6.6042    10.6150     6.1081 H         1 MOL       0.0000
    105 H27          4.4540    10.2147     5.5833 H         1 MOL       0.0000
    106 H28          4.6974     3.0056     6.8049 H         1 MOL       0.0000
    107 H29          0.0417     3.7269     8.4310 H         1 MOL       0.0000
    108 H30         12.1297    -2.6519     7.0134 H         1 MOL       0.0000
    109 H31          1.3734     1.8298     9.2941 H         1 MOL       0.0000
    110 H32          1.0412     5.2689     6.7096 H         1 MOL       0.0000
    111 H33          5.7901     8.4456     4.4654 H         1 MOL       0.0000
    112 H34          8.2460     8.3516     4.7507 H         1 MOL       0.0000
    113 C35          2.9221     4.2179     6.6517 C         1 MOL       0.0000
    114 C36          1.8131     2.5052     8.5618 C         1 MOL       0.0000
    115 C37          6.2882     9.1853     5.0913 C         1 MOL       0.0000
    116 C38         -1.9136    -2.9480     6.6221 C         1 MOL       0.0000
    117 C39          1.6079     4.4303     7.1093 C         1 MOL       0.0000
    118 C40          3.1267     2.2961     8.1211 C         1 MOL       0.0000
    119 C41          5.5356    10.1922     5.7074 C         1 MOL       0.0000
    120 C42         -7.6806    10.6448     5.9538 C         1 MOL       0.0000
    121 C43          7.6777     9.1350     5.2498 C         1 MOL       0.0000
    122 C44         12.6924    -3.4473     6.5304 C         1 MOL       0.0000
    123 C45          3.6822     3.1514     7.1684 C         1 MOL       0.0000
    124 C46          1.0562     3.5746     8.0647 C         1 MOL       0.0000
    125 N5           5.5672    10.8899     1.2787 N         1 MOL       0.0000
    126 N6           2.1319     2.7681    12.8702 N         1 MOL       0.0000
    127 C47          5.3518    11.5068     0.0515 C         1 MOL       0.0000
    128 C48          1.4416     3.7654    12.2032 C         1 MOL       0.0000
    129 C49          4.3976     2.7140    11.8715 C         1 MOL       0.0000
    130 C50          5.0988    11.4183     2.5808 C         1 MOL       0.0000
    131 C51          6.4680     9.9061     1.0886 C         1 MOL       0.0000
    132 C52          3.1683     1.9048    12.2739 C         1 MOL       0.0000
    133 H35          0.1429     5.3550    13.0534 H         1 MOL       0.0000
    134 H36          1.5198     3.9112    11.1329 H         1 MOL       0.0000
    135 H37          4.1355     3.5100    11.1628 H         1 MOL       0.0000
    136 H38          4.7067    12.4314     2.4370 H         1 MOL       0.0000
    137 H39          4.8641     3.1862    12.7433 H         1 MOL       0.0000
    138 H40          4.4084    10.7349     3.0456 H         1 MOL       0.0000
    139 H41          5.1316     2.0530    11.3937 H         1 MOL       0.0000
    140 H42          2.7238     1.3849    11.4166 H         1 MOL       0.0000
    141 H43          5.9391    11.5168     3.2682 H         1 MOL       0.0000
    142 H44          6.9545     9.3281     1.8631 H         1 MOL       0.0000
    143 H45          3.4035     1.1447    13.0264 H         1 MOL       0.0000
    144 N7          13.5606    -0.2619     0.2715 N         1 MOL       0.0000
    145 C53          0.3824     0.3489     1.7225 C         1 MOL       0.0000
    146 C54          9.6654    -5.8132    11.1028 C         1 MOL       0.0000
    147 O33         13.7839    -0.5833     2.7594 O         1 MOL       0.0000
    148 O34          8.3528    11.9998     1.1972 O         1 MOL       0.0000
    149 O35          1.3137     6.8101    11.0008 O         1 MOL       0.0000
    150 O36          3.8236     5.9144    11.0337 O         1 MOL       0.0000
    151 F1           0.1140     1.8443     2.0077 F         1 MOL       0.0000
    152 F2          10.6670    -4.8904    11.7874 F         1 MOL       0.0000
    153 F3           1.3475     0.5492     0.6722 F         1 MOL       0.0000
    154 F4           0.1648    -0.0887     3.4114 F         1 MOL       0.0000
    155 F5           8.6590    -4.9371    10.9963 F         1 MOL       0.0000
    156 F6           3.1234     8.6307     9.3173 F         1 MOL       0.0000
    157 S1          14.3415    -1.1161     1.4495 S         1 MOL       0.0000
    158 S2           2.5988     6.9752    11.5960 S         1 MOL       0.0000
    159 N8           3.0301     1.4254     3.1306 N         1 MOL       0.0000
    160 N9           1.1385     2.1051     4.0359 N         1 MOL       0.0000
    161 C55          4.0228     1.1326     2.0691 C         1 MOL       0.0000
    162 C56          1.9592     2.2250     2.9599 C         1 MOL       0.0000
    163 C57          2.9605     0.8745     4.4004 C         1 MOL       0.0000
    164 C58          3.8114    -0.2148     1.3774 C         1 MOL       0.0000
    165 C59          1.7805     1.2880     4.9563 C         1 MOL       0.0000
    166 C60         -0.2936     2.4884     4.1292 C         1 MOL       0.0000
    167 H46          4.9972     1.1635     2.5647 H         1 MOL       0.0000
    168 H47          3.9827     1.9637     1.3509 H         1 MOL       0.0000
    169 H48          1.7270     2.6759     2.0006 H         1 MOL       0.0000
    170 H49          4.6482    -0.4340     0.7048 H         1 MOL       0.0000
    171 H50          3.7839     0.2971     4.7875 H         1 MOL       0.0000
    172 H51         -0.4293     3.1778     4.9585 H         1 MOL       0.0000
    173 H52         -0.6101     2.9782     3.2046 H         1 MOL       0.0000
    174 H53          3.6638    -1.0369     2.0871 H         1 MOL       0.0000
    175 H54          1.3391     1.0709     5.9182 H         1 MOL       0.0000
    176 H55          2.9413    -0.2101     0.7298 H         1 MOL       0.0000
    177 H56         -0.9356     1.5937     4.2206 H         1 MOL       0.0000
    178 N10         -0.5989     0.5317     1.4156 N         1 MOL       0.0000
    179 C61         14.1958    -2.0407     2.9132 C         1 MOL       0.0000
    180 C62          9.7384    -6.6469    12.2735 C         1 MOL       0.0000
    181 O37          0.3671     2.8613     0.3534 O         1 MOL       0.0000
    182 O38         -5.0140    13.0780     2.6390 O         1 MOL       0.0000
    183 O39         -3.7768    -6.3804    12.0817 O         1 MOL       0.0000
    184 O40          9.8645    12.2534     0.5597 O         1 MOL       0.0000
    185 F7          13.9114    -1.6072     4.2095 F         1 MOL       0.0000
    186 F8           8.4900    -5.9497    12.8790 F         1 MOL       0.0000
    187 F9           6.5520    12.7159     1.8309 F         1 MOL       0.0000
    188 F10          7.6467    11.1918     3.1525 F         1 MOL       0.0000
    189 F11         10.3164    -6.2762    10.8022 F         1 MOL       0.0000
    190 F12          3.0701     6.1829    12.1803 F         1 MOL       0.0000
    191 S3           0.0494     1.4249     0.0791 S         1 MOL       0.0000
    192 S4          -6.5003    13.4638     1.8559 S         1 MOL       0.0000
    193 Ti9         -7.4904    -4.8362    24.3414 Ti        1 MOL       0.0000
    194 Ti10         3.3400    -1.9550    14.9766 Ti        1 MOL       0.0000
    195 Ti11        -3.3938    -8.7724    22.5214 Ti        1 MOL       0.0000
    196 Ti12        -1.8826     0.3897    16.7484 Ti        1 MOL       0.0000
    197 Ti13        -2.8811     2.0680    14.8440 Ti        1 MOL       0.0000
    198 Ti14        -1.5056    -9.0268    24.4748 Ti        1 MOL       0.0000
    199 Ti15        -6.5412    -6.5721    22.4499 Ti        1 MOL       0.0000
    200 Ti16         1.3522    -1.6525    16.8240 Ti        1 MOL       0.0000
    201 H57         -6.9886    -0.9391    24.1219 H         1 MOL       0.0000
    202 H58          4.1488    -5.8611    15.2973 H         1 MOL       0.0000
    203 H59        -11.4503    -5.5929    23.9590 H         1 MOL       0.0000
    204 H60          6.7222     0.0493    15.1772 H         1 MOL       0.0000
    205 H61         -0.5299   -13.0613    24.0889 H         1 MOL       0.0000
    206 H62         -6.9397     1.4781    15.1661 H         1 MOL       0.0000
    207 H63         -7.0217    -6.6348    26.0659 H         1 MOL       0.0000
    208 H64          1.4645    -2.1977    13.2767 H         1 MOL       0.0000
    209 H65         -0.9956    -9.6939    18.9637 H         1 MOL       0.0000
    210 H66         -3.6060     2.2267    20.3673 H         1 MOL       0.0000
    211 H67        -10.6139    -3.1835    22.0940 H         1 MOL       0.0000
    212 H68          6.0948    -4.0393    17.2826 H         1 MOL       0.0000
    213 H69         -8.3127    -4.6309    18.7602 H         1 MOL       0.0000
    214 H70         -5.9812     3.8959    17.1972 H         1 MOL       0.0000
    215 H71         -2.4889     5.1708    15.6995 H         1 MOL       0.0000
    216 H72          3.9910    -7.8799    16.4998 H         1 MOL       0.0000
    217 H73          0.2101     0.0698    15.4098 H         1 MOL       0.0000
    218 H74         -4.4744    -6.9240    23.8150 H         1 MOL       0.0000
    219 H75          2.7292    -7.0919    22.8645 H         1 MOL       0.0000
    220 H76          1.2481    -7.5610    23.6118 H         1 MOL       0.0000
    221 H77          3.3033    -2.6583    21.7655 H         1 MOL       0.0000
    222 H78          2.7336    -2.2997    20.1470 H         1 MOL       0.0000
    223 H79          2.2404   -12.0468    22.6744 H         1 MOL       0.0000
    224 H80          0.9612   -10.9462    23.1318 H         1 MOL       0.0000
    225 C63          3.9181    -2.6963    17.8401 C         1 MOL       0.0000
    226 C64         -8.4510    -4.5749    21.4944 C         1 MOL       0.0000
    227 C65         -0.8132    -9.7831    21.5967 C         1 MOL       0.0000
    228 C66         -3.8187     2.3602    17.7078 C         1 MOL       0.0000
    229 C67          4.8141    -3.3006    18.8353 C         1 MOL       0.0000
    230 C68         -9.3829    -3.9498    20.5173 C         1 MOL       0.0000
    231 C69          0.1269   -10.3975    20.6495 C         1 MOL       0.0000
    232 C70         -4.7085     3.0070    18.7075 C         1 MOL       0.0000
    233 C71          4.5653    -3.2257    20.2417 C         1 MOL       0.0000
    234 C72         -9.1665    -4.0698    19.1293 C         1 MOL       0.0000
    235 C73          1.2564   -11.1578    21.1026 C         1 MOL       0.0000
    236 C74         -5.8032     3.7800    18.2626 C         1 MOL       0.0000
    237 C75         -4.4540     2.8362    20.0624 C         1 MOL       0.0000
    238 C76         -0.1208   -10.2653    19.2656 C         1 MOL       0.0000
    239 C77          5.9478    -3.9996    18.3596 C         1 MOL       0.0000
    240 C78        -10.4831    -3.2574    21.0160 C         1 MOL       0.0000
    241 C79          4.1298    -5.7820    13.1532 C         1 MOL       0.0000
    242 C80         -2.3399     6.0096    13.1782 C         1 MOL       0.0000
    243 C81          1.9793    -7.0849    26.1222 C         1 MOL       0.0000
    244 C82        -11.3790    -5.5425    26.1028 C         1 MOL       0.0000
    245 C83         -1.1358    -1.9535    18.7130 C         1 MOL       0.0000
    246 C84         -5.8919    -9.0479    20.6311 C         1 MOL       0.0000
    247 C85         -0.6410   -11.3932    26.2250 C         1 MOL       0.0000
    248 C86         -2.4326     4.5761    13.1407 C         1 MOL       0.0000
    249 C87          0.6815    -7.7017    26.1690 C         1 MOL       0.0000
    250 C88         -9.9767    -5.1281    26.1273 C         1 MOL       0.0000
    251 C89          4.1692    -6.4511    14.3829 C         1 MOL       0.0000
    252 C90         -6.9776    -0.3507    25.0358 C         1 MOL       0.0000
    253 C91         -8.7304     0.8129    14.1711 C         1 MOL       0.0000
    254 C92        -12.0118    -5.7722    24.8743 C         1 MOL       0.0000
    255 C93          2.6739    -6.8166    24.8888 C         1 MOL       0.0000
    256 C94         -7.4412     1.2931    14.2203 C         1 MOL       0.0000
    257 C95         -0.4883   -13.5885    25.0379 C         1 MOL       0.0000
    258 C96          4.1909    -7.8522    14.4645 C         1 MOL       0.0000
    259 N11          4.2460    -8.4511    15.7026 N         1 MOL       0.0000
    260 N12          2.0949    -6.9995    23.6498 N         1 MOL       0.0000
    261 N13          3.4845    -2.5794    20.7730 N         1 MOL       0.0000
    262 N14          1.5874   -11.3160    22.4200 N         1 MOL       0.0000
    263 O41          2.7418    -2.2912    18.2059 O         1 MOL       0.0000
    264 O42         -7.6820    -5.5257    21.0961 O         1 MOL       0.0000
    265 O43         -0.4318    -9.6587    22.8178 O         1 MOL       0.0000
    266 O44         -3.8845     2.7899    16.5082 O         1 MOL       0.0000
    267 O45         -3.0482     1.4030    18.0942 O         1 MOL       0.0000
    268 O46         -1.9837    -9.4147    21.1912 O         1 MOL       0.0000
    269 O47          4.3300    -2.6155    16.6284 O         1 MOL       0.0000
    270 O48         -8.4930    -4.1386    22.6941 O         1 MOL       0.0000
    271 O49          1.6574    -2.8704    15.6294 O         1 MOL       0.0000
    272 O50         -5.9888    -5.0118    23.1944 O         1 MOL       0.0000
    273 O51          2.5962    -0.5831    16.0793 O         1 MOL       0.0000
    274 O52         -7.7410    -6.7365    23.6871 O         1 MOL       0.0000
    275 O53         -3.1344    -9.9444    23.7818 O         1 MOL       0.0000
    276 O54         -1.3660     1.9510    16.0099 O         1 MOL       0.0000
    277 O55         -2.1805    -7.6829    23.3177 O         1 MOL       0.0000
    278 O56         -3.0722     0.1939    15.4925 O         1 MOL       0.0000
    279 O57          0.0853    -2.1334    18.3587 O         1 MOL       0.0000
    280 O58         -6.5496    -8.0129    21.0093 O         1 MOL       0.0000
    281 O59         -0.7632   -10.7986    25.0839 O         1 MOL       0.0000
    282 O60         -2.5157     3.8746    14.2359 O         1 MOL       0.0000
    283 O61          0.0389    -8.0105    25.0788 O         1 MOL       0.0000
    284 O62         -4.7517     2.0389    14.1758 O         1 MOL       0.0000
    285 O63         -4.7301    -9.3424    21.0889 O         1 MOL       0.0000
    286 O64         -1.8777    -1.0326    18.2196 O         1 MOL       0.0000
    287 O65          4.7771    -0.9359    14.2220 O         1 MOL       0.0000
    288 O66         -9.3772    -4.8963    25.0098 O         1 MOL       0.0000
    289 O67          3.9816    -3.6902    14.2514 O         1 MOL       0.0000
    290 O68         -7.1090    -3.1139    25.0911 O         1 MOL       0.0000
    291 O69         -0.1508    -0.4789    16.1304 O         1 MOL       0.0000
    292 O70         -4.8527    -7.4827    23.1115 O         1 MOL       0.0000
    293 O71          2.3033    -1.7041    13.1976 O         1 MOL       0.0000
    294 O72         -6.8993    -5.6680    26.1259 O         1 MOL       0.0000
    295 H81         -0.9346    -5.6046    21.6164 H         1 MOL       0.0000
    296 H82        -11.2392     3.5490    19.2031 H         1 MOL       0.0000
    297 H83         -0.1810     3.1487    18.6783 H         1 MOL       0.0000
    298 H84          0.0624    -4.0604    19.8999 H         1 MOL       0.0000
    299 H85         -4.5933    -3.3391    21.5260 H         1 MOL       0.0000
    300 H86          7.4947    -9.7179    20.1084 H         1 MOL       0.0000
    301 H87         -3.2616    -5.2362    22.3891 H         1 MOL       0.0000
    302 H88         -3.5938    -1.7971    19.8046 H         1 MOL       0.0000
    303 H89          1.1551     1.3796    17.5604 H         1 MOL       0.0000
    304 H90          3.6110     1.2856    17.8457 H         1 MOL       0.0000
    305 C97         -1.7129    -2.8481    19.7467 C         1 MOL       0.0000
    306 C98         -2.8219    -4.5608    21.6568 C         1 MOL       0.0000
    307 C99          1.6532     2.1193    18.1863 C         1 MOL       0.0000
    308 C100        -6.5486   -10.0140    19.7171 C         1 MOL       0.0000
    309 C101        -3.0271    -2.6357    20.2043 C         1 MOL       0.0000
    310 C102        -1.5083    -4.7699    21.2161 C         1 MOL       0.0000
    311 C103         0.9006     3.1262    18.8024 C         1 MOL       0.0000
    312 C104       -12.3156     3.5788    19.0488 C         1 MOL       0.0000
    313 C105         3.0427     2.0690    18.3448 C         1 MOL       0.0000
    314 C106         8.0574   -10.5133    19.6254 C         1 MOL       0.0000
    315 C107        -0.9528    -3.9146    20.2634 C         1 MOL       0.0000
    316 C108        -3.5788    -3.4914    21.1597 C         1 MOL       0.0000
    317 N15          0.9322     3.8239    14.3737 N         1 MOL       0.0000
    318 N16         -2.5031    -4.2979    25.9652 N         1 MOL       0.0000
    319 C109         0.7168     4.4408    13.1465 C         1 MOL       0.0000
    320 C110        -3.1934    -3.3006    25.2982 C         1 MOL       0.0000
    321 C111        -0.2374    -4.3520    24.9665 C         1 MOL       0.0000
    322 C112         0.4638     4.3523    15.6758 C         1 MOL       0.0000
    323 C113         1.8330     2.8401    14.1836 C         1 MOL       0.0000
    324 C114        -1.4667    -5.1612    25.3689 C         1 MOL       0.0000
    325 H91         -4.4921    -1.7110    26.1484 H         1 MOL       0.0000
    326 H92         -3.1152    -3.1548    24.2279 H         1 MOL       0.0000
    327 H93         -0.4995    -3.5560    24.2578 H         1 MOL       0.0000
    328 H94          0.0717     5.3654    15.5320 H         1 MOL       0.0000
    329 H95          0.2291    -3.8798    25.8383 H         1 MOL       0.0000
    330 H96         -0.2266     3.6689    16.1406 H         1 MOL       0.0000
    331 H97          0.4966    -5.0130    24.4887 H         1 MOL       0.0000
    332 H98         -1.9112    -5.6811    24.5116 H         1 MOL       0.0000
    333 H99          1.3041     4.4508    16.3632 H         1 MOL       0.0000
    334 H100         2.3195     2.2621    14.9581 H         1 MOL       0.0000
    335 H101        -1.2315    -5.9213    26.1214 H         1 MOL       0.0000
    336 N17          8.9256    -7.3279    13.3665 N         1 MOL       0.0000
    337 C115        -4.2526    -6.7171    14.8175 C         1 MOL       0.0000
    338 C116         5.0304   -12.8792    24.1978 C         1 MOL       0.0000
    339 O73          9.1489    -7.6493    15.8544 O         1 MOL       0.0000
    340 O74          3.7178     4.9338    14.2922 O         1 MOL       0.0000
    341 O75         -3.3213    -0.2559    24.0958 O         1 MOL       0.0000
    342 O76         -0.8114    -1.1516    24.1287 O         1 MOL       0.0000
    343 F13         -4.5210    -5.2217    15.1027 F         1 MOL       0.0000
    344 F14          6.0320   -11.9564    24.8824 F         1 MOL       0.0000
    345 F15         -3.2875    -6.5168    13.7672 F         1 MOL       0.0000
    346 F16         -4.4702    -7.1547    16.5064 F         1 MOL       0.0000
    347 F17          4.0240   -12.0031    24.0913 F         1 MOL       0.0000
    348 F18         -1.5116     1.5647    22.4123 F         1 MOL       0.0000
    349 S5           9.7065    -8.1821    14.5445 S         1 MOL       0.0000
    350 S6          -2.0362    -0.0908    24.6910 S         1 MOL       0.0000
    351 N18         -1.6049    -5.6406    16.2256 N         1 MOL       0.0000
    352 N19         -3.4965    -4.9609    17.1309 N         1 MOL       0.0000
    353 C117        -0.6122    -5.9334    15.1641 C         1 MOL       0.0000
    354 C118        -2.6758    -4.8410    16.0549 C         1 MOL       0.0000
    355 C119        -1.6745    -6.1915    17.4954 C         1 MOL       0.0000
    356 C120        -0.8236    -7.2808    14.4724 C         1 MOL       0.0000
    357 C121        -2.8545    -5.7780    18.0513 C         1 MOL       0.0000
    358 C122        -4.9286    -4.5776    17.2242 C         1 MOL       0.0000
    359 H102         0.3622    -5.9025    15.6597 H         1 MOL       0.0000
    360 H103        -0.6523    -5.1023    14.4459 H         1 MOL       0.0000
    361 H104        -2.9080    -4.3901    15.0956 H         1 MOL       0.0000
    362 H105         0.0132    -7.5000    13.7998 H         1 MOL       0.0000
    363 H106        -0.8511    -6.7689    17.8825 H         1 MOL       0.0000
    364 H107        -5.0643    -3.8882    18.0535 H         1 MOL       0.0000
    365 H108        -5.2451    -4.0878    16.2996 H         1 MOL       0.0000
    366 H109        -0.9712    -8.1029    15.1821 H         1 MOL       0.0000
    367 H110        -3.2959    -5.9951    19.0132 H         1 MOL       0.0000
    368 H111        -1.6937    -7.2761    13.8248 H         1 MOL       0.0000
    369 H112        -5.5706    -5.4723    17.3156 H         1 MOL       0.0000
    370 N20         -5.2339    -6.5343    14.5106 N         1 MOL       0.0000
    371 C123         9.5608    -9.1067    16.0082 C         1 MOL       0.0000
    372 C124         5.1034   -13.7129    25.3685 C         1 MOL       0.0000
    373 O77         -4.2679    -4.2047    13.4484 O         1 MOL       0.0000
    374 O78         -9.6490     6.0120    15.7340 O         1 MOL       0.0000
    375 O79         -8.4118   -13.4464    25.1767 O         1 MOL       0.0000
    376 O80          5.2295     5.1874    13.6547 O         1 MOL       0.0000
    377 F19          9.2764    -8.6732    17.3045 F         1 MOL       0.0000
    378 F20          3.8550   -13.0157    25.9740 F         1 MOL       0.0000
    379 F21          1.9170     5.6499    14.9259 F         1 MOL       0.0000
    380 F22          3.0117     4.1258    16.2475 F         1 MOL       0.0000
    381 F23          5.6814   -13.3422    23.8972 F         1 MOL       0.0000
    382 F24         -1.5649    -0.8831    25.2753 F         1 MOL       0.0000
    383 S7          -4.5856    -5.6411    13.1741 S         1 MOL       0.0000
    384 S8         -11.1353     6.3978    14.9509 S         1 MOL       0.0000
    385 Ti17        -9.3724    16.8428    11.1894 Ti        1 MOL       0.0000
    386 Ti18         1.4580    19.7240     1.8246 Ti        1 MOL       0.0000
    387 Ti19        -5.2758    12.9066     9.3694 Ti        1 MOL       0.0000
    388 Ti20        -3.7646    22.0687     3.5964 Ti        1 MOL       0.0000
    389 Ti21        -4.7631    23.7470     1.6920 Ti        1 MOL       0.0000
    390 Ti22        -3.3876    12.6522    11.3228 Ti        1 MOL       0.0000
    391 Ti23        -8.4232    15.1069     9.2979 Ti        1 MOL       0.0000
    392 Ti24        -0.5298    20.0265     3.6721 Ti        1 MOL       0.0000
    393 H113        -8.8706    20.7399    10.9699 H         1 MOL       0.0000
    394 H114         2.2668    15.8179     2.1453 H         1 MOL       0.0000
    395 H115       -13.3323    16.0861    10.8070 H         1 MOL       0.0000
    396 H116         4.8402    21.7283     2.0252 H         1 MOL       0.0000
    397 H117        -2.4119     8.6177    10.9369 H         1 MOL       0.0000
    398 H118        -8.8217    23.1571     2.0141 H         1 MOL       0.0000
    399 H119        -8.9037    15.0442    12.9139 H         1 MOL       0.0000
    400 H120        -0.4175    19.4813     0.1247 H         1 MOL       0.0000
    401 H121        -2.8776    11.9851     5.8117 H         1 MOL       0.0000
    402 H122        -5.4880    23.9057     7.2153 H         1 MOL       0.0000
    403 H123       -12.4959    18.4955     8.9420 H         1 MOL       0.0000
    404 H124         4.2128    17.6396     4.1306 H         1 MOL       0.0000
    405 H125       -10.1948    17.0481     5.6082 H         1 MOL       0.0000
    406 H126        -7.8632    25.5749     4.0452 H         1 MOL       0.0000
    407 H127        -4.3709    26.8498     2.5475 H         1 MOL       0.0000
    408 H128         2.1090    13.7991     3.3478 H         1 MOL       0.0000
    409 H129        -1.6719    21.7488     2.2578 H         1 MOL       0.0000
    410 H130        -6.3565    14.7550    10.6630 H         1 MOL       0.0000
    411 H131         0.8472    14.5871     9.7125 H         1 MOL       0.0000
    412 H132        -0.6339    14.1180    10.4598 H         1 MOL       0.0000
    413 H133         1.4213    19.0207     8.6136 H         1 MOL       0.0000
    414 H134         0.8516    19.3793     6.9950 H         1 MOL       0.0000
    415 H135         0.3584     9.6322     9.5224 H         1 MOL       0.0000
    416 H136        -0.9208    10.7328     9.9798 H         1 MOL       0.0000
    417 C125         2.0361    18.9827     4.6881 C         1 MOL       0.0000
    418 C126       -10.3330    17.1042     8.3424 C         1 MOL       0.0000
    419 C127        -2.6952    11.8959     8.4447 C         1 MOL       0.0000
    420 C128        -5.7007    24.0392     4.5557 C         1 MOL       0.0000
    421 C129         2.9321    18.3784     5.6833 C         1 MOL       0.0000
    422 C130       -11.2649    17.7292     7.3653 C         1 MOL       0.0000
    423 C131        -1.7550    11.2815     7.4975 C         1 MOL       0.0000
    424 C132        -6.5905    24.6860     5.5555 C         1 MOL       0.0000
    425 C133         2.6833    18.4533     7.0897 C         1 MOL       0.0000
    426 C134       -11.0485    17.6092     5.9773 C         1 MOL       0.0000
    427 C135        -0.6256    10.5212     7.9506 C         1 MOL       0.0000
    428 C136        -7.6852    25.4590     5.1106 C         1 MOL       0.0000
    429 C137        -6.3360    24.5152     6.9104 C         1 MOL       0.0000
    430 C138        -2.0028    11.4136     6.1136 C         1 MOL       0.0000
    431 C139         4.0658    17.6794     5.2076 C         1 MOL       0.0000
    432 C140       -12.3651    18.4216     7.8640 C         1 MOL       0.0000
    433 C141         2.2478    15.8970     0.0012 C         1 MOL       0.0000
    434 C142        -4.2219    27.6886     0.0262 C         1 MOL       0.0000
    435 C143         0.0973    14.5941    12.9702 C         1 MOL       0.0000
    436 C144       -13.2610    16.1365    12.9508 C         1 MOL       0.0000
    437 C145        -3.0178    19.7255     5.5610 C         1 MOL       0.0000
    438 C146        -7.7739    12.6311     7.4791 C         1 MOL       0.0000
    439 C147        -2.5230    10.2858    13.0730 C         1 MOL       0.0000
    440 C148        -4.3146    26.2551    -0.0113 C         1 MOL       0.0000
    441 C149        -1.2006    13.9773    13.0170 C         1 MOL       0.0000
    442 C150       -11.8587    16.5509    12.9753 C         1 MOL       0.0000
    443 C151         2.2872    15.2279     1.2309 C         1 MOL       0.0000
    444 C152        -8.8596    21.3283    11.8838 C         1 MOL       0.0000
    445 C153       -10.6124    22.4919     1.0191 C         1 MOL       0.0000
    446 C154       -13.8938    15.9068    11.7223 C         1 MOL       0.0000
    447 C155         0.7919    14.8624    11.7368 C         1 MOL       0.0000
    448 C156        -9.3232    22.9721     1.0683 C         1 MOL       0.0000
    449 C157        -2.3703     8.0905    11.8859 C         1 MOL       0.0000
    450 C158         2.3089    13.8268     1.3125 C         1 MOL       0.0000
    451 N21          2.3640    13.2279     2.5506 N         1 MOL       0.0000
    452 N22          0.2129    14.6795    10.4978 N         1 MOL       0.0000
    453 N23          1.6025    19.0996     7.6210 N         1 MOL       0.0000
    454 N24         -0.2946    10.3630     9.2680 N         1 MOL       0.0000
    455 O81          0.8598    19.3878     5.0539 O         1 MOL       0.0000
    456 O82         -9.5640    16.1533     7.9441 O         1 MOL       0.0000
    457 O83         -2.3138    12.0203     9.6658 O         1 MOL       0.0000
    458 O84         -5.7665    24.4689     3.3561 O         1 MOL       0.0000
    459 O85         -4.9302    23.0820     4.9422 O         1 MOL       0.0000
    460 O86         -3.8657    12.2643     8.0392 O         1 MOL       0.0000
    461 O87          2.4480    19.0635     3.4764 O         1 MOL       0.0000
    462 O88        -10.3750    17.5404     9.5421 O         1 MOL       0.0000
    463 O89         -0.2246    18.8086     2.4774 O         1 MOL       0.0000
    464 O90         -7.8708    16.6672    10.0424 O         1 MOL       0.0000
    465 O91          0.7142    21.0959     2.9273 O         1 MOL       0.0000
    466 O92         -9.6230    14.9425    10.5351 O         1 MOL       0.0000
    467 O93         -5.0164    11.7346    10.6298 O         1 MOL       0.0000
    468 O94         -3.2480    23.6300     2.8579 O         1 MOL       0.0000
    469 O95         -4.0625    13.9961    10.1657 O         1 MOL       0.0000
    470 O96         -4.9542    21.8729     2.3405 O         1 MOL       0.0000
    471 O97         -1.7967    19.5457     5.2067 O         1 MOL       0.0000
    472 O98         -8.4316    13.6661     7.8573 O         1 MOL       0.0000
    473 O99         -2.6452    10.8804    11.9319 O         1 MOL       0.0000
    474 O100        -4.3977    25.5536     1.0839 O         1 MOL       0.0000
    475 O101        -1.8431    13.6685    11.9268 O         1 MOL       0.0000
    476 O102        -6.6337    23.7179     1.0238 O         1 MOL       0.0000
    477 O103        -6.6121    12.3366     7.9369 O         1 MOL       0.0000
    478 O104        -3.7597    20.6464     5.0676 O         1 MOL       0.0000
    479 O105         2.8951    20.7431     1.0700 O         1 MOL       0.0000
    480 O106       -11.2592    16.7827    11.8578 O         1 MOL       0.0000
    481 O107         2.0995    17.9888     1.0994 O         1 MOL       0.0000
    482 O108        -8.9910    18.5650    11.9391 O         1 MOL       0.0000
    483 O109        -2.0328    21.2001     2.9784 O         1 MOL       0.0000
    484 O110        -6.7347    14.1963     9.9595 O         1 MOL       0.0000
    485 O111         0.4213    19.9749     0.0456 O         1 MOL       0.0000
    486 O112        -8.7813    16.0110    12.9739 O         1 MOL       0.0000
    487 H137        -2.8166    16.0744     8.4644 H         1 MOL       0.0000
    488 H138       -13.1212    25.2280     6.0511 H         1 MOL       0.0000
    489 H139        -2.0630    24.8277     5.5263 H         1 MOL       0.0000
    490 H140        -1.8196    17.6186     6.7479 H         1 MOL       0.0000
    491 H141        -6.4753    18.3399     8.3740 H         1 MOL       0.0000
    492 H142         5.6127    11.9611     6.9564 H         1 MOL       0.0000
    493 H143        -5.1436    16.4428     9.2371 H         1 MOL       0.0000
    494 H144        -5.4758    19.8819     6.6526 H         1 MOL       0.0000
    495 H145        -0.7269    23.0586     4.4084 H         1 MOL       0.0000
    496 H146         1.7290    22.9646     4.6937 H         1 MOL       0.0000
    497 C159        -3.5949    18.8309     6.5947 C         1 MOL       0.0000
    498 C160        -4.7039    17.1182     8.5048 C         1 MOL       0.0000
    499 C161        -0.2288    23.7983     5.0343 C         1 MOL       0.0000
    500 C162        -8.4306    11.6650     6.5651 C         1 MOL       0.0000
    501 C163        -4.9091    19.0433     7.0523 C         1 MOL       0.0000
    502 C164        -3.3903    16.9091     8.0641 C         1 MOL       0.0000
    503 C165        -0.9814    24.8052     5.6504 C         1 MOL       0.0000
    504 C166       -14.1976    25.2578     5.8968 C         1 MOL       0.0000
    505 C167         1.1607    23.7480     5.1928 C         1 MOL       0.0000
    506 C168         6.1754    11.1657     6.4734 C         1 MOL       0.0000
    507 C169        -2.8348    17.7644     7.1114 C         1 MOL       0.0000
    508 C170        -5.4608    18.1876     8.0077 C         1 MOL       0.0000
    509 N25         -0.9498    25.5029     1.2217 N         1 MOL       0.0000
    510 N26         -4.3851    17.3811    12.8132 N         1 MOL       0.0000
    511 C171        -1.1652    26.1198    -0.0055 C         1 MOL       0.0000
    512 C172        -5.0754    18.3784    12.1462 C         1 MOL       0.0000
    513 C173        -2.1194    17.3270    11.8145 C         1 MOL       0.0000
    514 C174        -1.4182    26.0313     2.5238 C         1 MOL       0.0000
    515 C175        -0.0490    24.5191     1.0316 C         1 MOL       0.0000
    516 C176        -3.3487    16.5178    12.2169 C         1 MOL       0.0000
    517 H147        -6.3741    19.9680    12.9964 H         1 MOL       0.0000
    518 H148        -4.9972    18.5242    11.0759 H         1 MOL       0.0000
    519 H149        -2.3815    18.1230    11.1058 H         1 MOL       0.0000
    520 H150        -1.8103    27.0444     2.3800 H         1 MOL       0.0000
    521 H151        -1.6529    17.7992    12.6863 H         1 MOL       0.0000
    522 H152        -2.1086    25.3479     2.9886 H         1 MOL       0.0000
    523 H153        -1.3854    16.6660    11.3367 H         1 MOL       0.0000
    524 H154        -3.7932    15.9979    11.3596 H         1 MOL       0.0000
    525 H155        -0.5779    26.1298     3.2112 H         1 MOL       0.0000
    526 H156         0.4375    23.9411     1.8061 H         1 MOL       0.0000
    527 H157        -3.1135    15.7577    12.9694 H         1 MOL       0.0000
    528 N27          7.0436    14.3511     0.2145 N         1 MOL       0.0000
    529 C177        -6.1346    14.9619     1.6655 C         1 MOL       0.0000
    530 C178         3.1484     8.7998    11.0458 C         1 MOL       0.0000
    531 O113         7.2669    14.0297     2.7024 O         1 MOL       0.0000
    532 O114         1.8358    26.6128     1.1402 O         1 MOL       0.0000
    533 O115        -5.2033    21.4231    10.9438 O         1 MOL       0.0000
    534 O116        -2.6934    20.5274    10.9767 O         1 MOL       0.0000
    535 F25         -6.4030    16.4573     1.9507 F         1 MOL       0.0000
    536 F26          4.1500     9.7226    11.7304 F         1 MOL       0.0000
    537 F27         -5.1695    15.1622     0.6152 F         1 MOL       0.0000
    538 F28         -6.3522    14.5243     3.3544 F         1 MOL       0.0000
    539 F29          2.1420     9.6759    10.9393 F         1 MOL       0.0000
    540 F30         -3.3936    23.2437     9.2603 F         1 MOL       0.0000
    541 S9           7.8245    13.4969     1.3925 S         1 MOL       0.0000
    542 S10         -3.9182    21.5882    11.5390 S         1 MOL       0.0000
    543 N28         -3.4869    16.0384     3.0736 N         1 MOL       0.0000
    544 N29         -5.3785    16.7181     3.9789 N         1 MOL       0.0000
    545 C179        -2.4942    15.7456     2.0121 C         1 MOL       0.0000
    546 C180        -4.5578    16.8380     2.9029 C         1 MOL       0.0000
    547 C181        -3.5565    15.4875     4.3434 C         1 MOL       0.0000
    548 C182        -2.7056    14.3982     1.3204 C         1 MOL       0.0000
    549 C183        -4.7365    15.9010     4.8993 C         1 MOL       0.0000
    550 C184        -6.8106    17.1014     4.0722 C         1 MOL       0.0000
    551 H158        -1.5198    15.7765     2.5077 H         1 MOL       0.0000
    552 H159        -2.5343    16.5767     1.2939 H         1 MOL       0.0000
    553 H160        -4.7900    17.2889     1.9436 H         1 MOL       0.0000
    554 H161        -1.8688    14.1790     0.6478 H         1 MOL       0.0000
    555 H162        -2.7331    14.9101     4.7305 H         1 MOL       0.0000
    556 H163        -6.9463    17.7908     4.9015 H         1 MOL       0.0000
    557 H164        -7.1271    17.5912     3.1476 H         1 MOL       0.0000
    558 H165        -2.8532    13.5761     2.0301 H         1 MOL       0.0000
    559 H166        -5.1779    15.6839     5.8612 H         1 MOL       0.0000
    560 H167        -3.5757    14.4029     0.6728 H         1 MOL       0.0000
    561 H168        -7.4526    16.2067     4.1636 H         1 MOL       0.0000
    562 N30         -7.1159    15.1447     1.3586 N         1 MOL       0.0000
    563 C185         7.6788    12.5723     2.8562 C         1 MOL       0.0000
    564 C186         3.2214     7.9661    12.2165 C         1 MOL       0.0000
    565 O117        -6.1499    17.4743     0.2964 O         1 MOL       0.0000
    566 O118       -11.5310    27.6910     2.5820 O         1 MOL       0.0000
    567 O119       -10.2938     8.2326    12.0247 O         1 MOL       0.0000
    568 O120         3.3475    26.8664     0.5027 O         1 MOL       0.0000
    569 F31          7.3944    13.0058     4.1525 F         1 MOL       0.0000
    570 F32          1.9730     8.6633    12.8220 F         1 MOL       0.0000
    571 F33          0.0350    27.3289     1.7739 F         1 MOL       0.0000
    572 F34          1.1297    25.8048     3.0955 F         1 MOL       0.0000
    573 F35          3.7994     8.3368    10.7452 F         1 MOL       0.0000
    574 F36         -3.4469    20.7959    12.1233 F         1 MOL       0.0000
    575 S11         -6.4676    16.0379     0.0221 S         1 MOL       0.0000
    576 S12        -13.0173    28.0768     1.7989 S         1 MOL       0.0000
    577 Ti25       -14.0074     9.7768    24.2844 Ti        1 MOL       0.0000
    578 Ti26        -3.1770    12.6580    14.9196 Ti        1 MOL       0.0000
    579 Ti27        -9.9108     5.8406    22.4644 Ti        1 MOL       0.0000
    580 Ti28        -8.3996    15.0027    16.6914 Ti        1 MOL       0.0000
    581 Ti29        -9.3981    16.6810    14.7870 Ti        1 MOL       0.0000
    582 Ti30        -8.0226     5.5862    24.4178 Ti        1 MOL       0.0000
    583 Ti31       -13.0582     8.0409    22.3929 Ti        1 MOL       0.0000
    584 Ti32        -5.1648    12.9605    16.7671 Ti        1 MOL       0.0000
    585 H169       -13.5056    13.6739    24.0649 H         1 MOL       0.0000
    586 H170        -2.3682     8.7519    15.2403 H         1 MOL       0.0000
    587 H171       -17.9673     9.0201    23.9020 H         1 MOL       0.0000
    588 H172         0.2052    14.6623    15.1202 H         1 MOL       0.0000
    589 H173        -7.0469     1.5517    24.0319 H         1 MOL       0.0000
    590 H174       -13.4567    16.0911    15.1091 H         1 MOL       0.0000
    591 H175       -13.5387     7.9782    26.0089 H         1 MOL       0.0000
    592 H176        -5.0525    12.4153    13.2196 H         1 MOL       0.0000
    593 H177        -7.5126     4.9191    18.9067 H         1 MOL       0.0000
    594 H178       -10.1230    16.8397    20.3103 H         1 MOL       0.0000
    595 H179       -17.1309    11.4295    22.0370 H         1 MOL       0.0000
    596 H180        -0.4222    10.5736    17.2256 H         1 MOL       0.0000
    597 H181       -14.8298     9.9821    18.7032 H         1 MOL       0.0000
    598 H182       -12.4982    18.5089    17.1402 H         1 MOL       0.0000
    599 H183        -9.0059    19.7838    15.6425 H         1 MOL       0.0000
    600 H184        -2.5260     6.7331    16.4428 H         1 MOL       0.0000
    601 H185        -6.3069    14.6828    15.3528 H         1 MOL       0.0000
    602 H186       -10.9915     7.6890    23.7580 H         1 MOL       0.0000
    603 H187        -3.7878     7.5211    22.8075 H         1 MOL       0.0000
    604 H188        -5.2689     7.0520    23.5548 H         1 MOL       0.0000
    605 H189        -3.2137    11.9547    21.7085 H         1 MOL       0.0000
    606 H190        -3.7834    12.3133    20.0900 H         1 MOL       0.0000
    607 H191        -4.2766     2.5662    22.6174 H         1 MOL       0.0000
    608 H192        -5.5558     3.6668    23.0748 H         1 MOL       0.0000
    609 C187        -2.5989    11.9167    17.7831 C         1 MOL       0.0000
    610 C188       -14.9680    10.0381    21.4374 C         1 MOL       0.0000
    611 C189        -7.3302     4.8299    21.5397 C         1 MOL       0.0000
    612 C190       -10.3357    16.9732    17.6507 C         1 MOL       0.0000
    613 C191        -1.7029    11.3124    18.7783 C         1 MOL       0.0000
    614 C192       -15.8999    10.6632    20.4603 C         1 MOL       0.0000
    615 C193        -6.3900     4.2155    20.5925 C         1 MOL       0.0000
    616 C194       -11.2255    17.6200    18.6505 C         1 MOL       0.0000
    617 C195        -1.9517    11.3873    20.1847 C         1 MOL       0.0000
    618 C196       -15.6835    10.5432    19.0723 C         1 MOL       0.0000
    619 C197        -5.2606     3.4552    21.0456 C         1 MOL       0.0000
    620 C198       -12.3202    18.3930    18.2056 C         1 MOL       0.0000
    621 C199       -10.9710    17.4492    20.0054 C         1 MOL       0.0000
    622 C200        -6.6378     4.3476    19.2086 C         1 MOL       0.0000
    623 C201        -0.5692    10.6134    18.3026 C         1 MOL       0.0000
    624 C202       -17.0001    11.3556    20.9590 C         1 MOL       0.0000
    625 C203        -2.3872     8.8310    13.0962 C         1 MOL       0.0000
    626 C204        -8.8569    20.6226    13.1212 C         1 MOL       0.0000
    627 C205        -4.5377     7.5281    26.0652 C         1 MOL       0.0000
    628 C206       -17.8960     9.0705    26.0458 C         1 MOL       0.0000
    629 C207        -7.6528    12.6595    18.6560 C         1 MOL       0.0000
    630 C208       -12.4089     5.5651    20.5741 C         1 MOL       0.0000
    631 C209        -7.1580     3.2199    26.1680 C         1 MOL       0.0000
    632 C210        -8.9496    19.1891    13.0837 C         1 MOL       0.0000
    633 C211        -5.8355     6.9113    26.1120 C         1 MOL       0.0000
    634 C212       -16.4937     9.4849    26.0703 C         1 MOL       0.0000
    635 C213        -2.3478     8.1619    14.3259 C         1 MOL       0.0000
    636 C214       -13.4946    14.2623    24.9788 C         1 MOL       0.0000
    637 C215       -15.2474    15.4259    14.1141 C         1 MOL       0.0000
    638 C216       -18.5288     8.8408    24.8173 C         1 MOL       0.0000
    639 C217        -3.8431     7.7964    24.8318 C         1 MOL       0.0000
    640 C218       -13.9582    15.9061    14.1633 C         1 MOL       0.0000
    641 C219        -7.0053     1.0245    24.9809 C         1 MOL       0.0000
    642 C220        -2.3261     6.7608    14.4075 C         1 MOL       0.0000
    643 N31         -2.2710     6.1619    15.6456 N         1 MOL       0.0000
    644 N32         -4.4221     7.6135    23.5928 N         1 MOL       0.0000
    645 N33         -3.0325    12.0336    20.7160 N         1 MOL       0.0000
    646 N34         -4.9296     3.2970    22.3630 N         1 MOL       0.0000
    647 O121        -3.7752    12.3218    18.1489 O         1 MOL       0.0000
    648 O122       -14.1990     9.0873    21.0391 O         1 MOL       0.0000
    649 O123        -6.9488     4.9543    22.7608 O         1 MOL       0.0000
    650 O124       -10.4015    17.4029    16.4512 O         1 MOL       0.0000
    651 O125        -9.5652    16.0160    18.0372 O         1 MOL       0.0000
    652 O126        -8.5007     5.1983    21.1342 O         1 MOL       0.0000
    653 O127        -2.1870    11.9975    16.5714 O         1 MOL       0.0000
    654 O128       -15.0100    10.4744    22.6371 O         1 MOL       0.0000
    655 O129        -4.8596    11.7426    15.5724 O         1 MOL       0.0000
    656 O130       -12.5058     9.6012    23.1374 O         1 MOL       0.0000
    657 O131        -3.9208    14.0299    16.0223 O         1 MOL       0.0000
    658 O132       -14.2580     7.8765    23.6301 O         1 MOL       0.0000
    659 O133        -9.6515     4.6686    23.7248 O         1 MOL       0.0000
    660 O134        -7.8830    16.5640    15.9529 O         1 MOL       0.0000
    661 O135        -8.6975     6.9301    23.2607 O         1 MOL       0.0000
    662 O136        -9.5892    14.8069    15.4355 O         1 MOL       0.0000
    663 O137        -6.4317    12.4797    18.3017 O         1 MOL       0.0000
    664 O138       -13.0666     6.6001    20.9523 O         1 MOL       0.0000
    665 O139        -7.2802     3.8144    25.0269 O         1 MOL       0.0000
    666 O140        -9.0327    18.4876    14.1789 O         1 MOL       0.0000
    667 O141        -6.4781     6.6025    25.0218 O         1 MOL       0.0000
    668 O142       -11.2687    16.6519    14.1188 O         1 MOL       0.0000
    669 O143       -11.2471     5.2706    21.0319 O         1 MOL       0.0000
    670 O144        -8.3947    13.5804    18.1626 O         1 MOL       0.0000
    671 O145        -1.7399    13.6771    14.1650 O         1 MOL       0.0000
    672 O146       -15.8942     9.7167    24.9528 O         1 MOL       0.0000
    673 O147        -2.5355    10.9228    14.1944 O         1 MOL       0.0000
    674 O148       -13.6260    11.4990    25.0341 O         1 MOL       0.0000
    675 O149        -6.6678    14.1341    16.0734 O         1 MOL       0.0000
    676 O150       -11.3697     7.1303    23.0545 O         1 MOL       0.0000
    677 O151        -4.2137    12.9089    13.1406 O         1 MOL       0.0000
    678 O152       -13.4163     8.9450    26.0689 O         1 MOL       0.0000
    679 H193        -7.4516     9.0084    21.5594 H         1 MOL       0.0000
    680 H194       -17.7562    18.1620    19.1461 H         1 MOL       0.0000
    681 H195        -6.6980    17.7617    18.6213 H         1 MOL       0.0000
    682 H196        -6.4546    10.5526    19.8429 H         1 MOL       0.0000
    683 H197       -11.1103    11.2739    21.4690 H         1 MOL       0.0000
    684 H198         0.9777     4.8951    20.0514 H         1 MOL       0.0000
    685 H199        -9.7786     9.3768    22.3321 H         1 MOL       0.0000
    686 H200       -10.1108    12.8159    19.7476 H         1 MOL       0.0000
    687 H201        -5.3619    15.9926    17.5034 H         1 MOL       0.0000
    688 H202        -2.9060    15.8986    17.7887 H         1 MOL       0.0000
    689 C221        -8.2299    11.7649    19.6897 C         1 MOL       0.0000
    690 C222        -9.3389    10.0522    21.5998 C         1 MOL       0.0000
    691 C223        -4.8638    16.7323    18.1293 C         1 MOL       0.0000
    692 C224       -13.0656     4.5990    19.6601 C         1 MOL       0.0000
    693 C225        -9.5441    11.9773    20.1473 C         1 MOL       0.0000
    694 C226        -8.0253     9.8431    21.1591 C         1 MOL       0.0000
    695 C227        -5.6164    17.7392    18.7454 C         1 MOL       0.0000
    696 C228       -18.8326    18.1918    18.9918 C         1 MOL       0.0000
    697 C229        -3.4743    16.6820    18.2878 C         1 MOL       0.0000
    698 C230         1.5404     4.0997    19.5684 C         1 MOL       0.0000
    699 C231        -7.4698    10.6984    20.2064 C         1 MOL       0.0000
    700 C232       -10.0958    11.1216    21.1027 C         1 MOL       0.0000
    701 N35         -5.5848    18.4369    14.3167 N         1 MOL       0.0000
    702 N36         -9.0201    10.3151    25.9082 N         1 MOL       0.0000
    703 C233        -5.8002    19.0538    13.0895 C         1 MOL       0.0000
    704 C234        -9.7104    11.3124    25.2412 C         1 MOL       0.0000
    705 C235        -6.7544    10.2610    24.9095 C         1 MOL       0.0000
    706 C236        -6.0532    18.9653    15.6188 C         1 MOL       0.0000
    707 C237        -4.6840    17.4531    14.1266 C         1 MOL       0.0000
    708 C238        -7.9837     9.4518    25.3119 C         1 MOL       0.0000
    709 H203       -11.0091    12.9020    26.0914 H         1 MOL       0.0000
    710 H204        -9.6322    11.4582    24.1709 H         1 MOL       0.0000
    711 H205        -7.0165    11.0570    24.2008 H         1 MOL       0.0000
    712 H206        -6.4453    19.9784    15.4750 H         1 MOL       0.0000
    713 H207        -6.2879    10.7332    25.7813 H         1 MOL       0.0000
    714 H208        -6.7436    18.2819    16.0836 H         1 MOL       0.0000
    715 H209        -6.0204     9.6000    24.4317 H         1 MOL       0.0000
    716 H210        -8.4282     8.9319    24.4546 H         1 MOL       0.0000
    717 H211        -5.2129    19.0638    16.3062 H         1 MOL       0.0000
    718 H212        -4.1975    16.8751    14.9011 H         1 MOL       0.0000
    719 H213        -7.7485     8.6917    26.0644 H         1 MOL       0.0000
    720 N37          2.4086     7.2851    13.3095 N         1 MOL       0.0000
    721 C239       -10.7696     7.8959    14.7605 C         1 MOL       0.0000
    722 C240        -1.4866     1.7338    24.1408 C         1 MOL       0.0000
    723 O153         2.6319     6.9637    15.7974 O         1 MOL       0.0000
    724 O154        -2.7992    19.5468    14.2352 O         1 MOL       0.0000
    725 O155        -9.8383    14.3571    24.0388 O         1 MOL       0.0000
    726 O156        -7.3284    13.4614    24.0717 O         1 MOL       0.0000
    727 F37        -11.0380     9.3913    15.0457 F         1 MOL       0.0000
    728 F38         -0.4850     2.6566    24.8254 F         1 MOL       0.0000
    729 F39         -9.8045     8.0962    13.7102 F         1 MOL       0.0000
    730 F40        -10.9872     7.4583    16.4494 F         1 MOL       0.0000
    731 F41         -2.4930     2.6099    24.0343 F         1 MOL       0.0000
    732 F42         -8.0286    16.1777    22.3553 F         1 MOL       0.0000
    733 S13          3.1895     6.4309    14.4875 S         1 MOL       0.0000
    734 S14         -8.5532    14.5222    24.6340 S         1 MOL       0.0000
    735 N38         -8.1219     8.9724    16.1686 N         1 MOL       0.0000
    736 N39        -10.0135     9.6521    17.0739 N         1 MOL       0.0000
    737 C241        -7.1292     8.6796    15.1071 C         1 MOL       0.0000
    738 C242        -9.1928     9.7720    15.9979 C         1 MOL       0.0000
    739 C243        -8.1915     8.4215    17.4384 C         1 MOL       0.0000
    740 C244        -7.3406     7.3322    14.4154 C         1 MOL       0.0000
    741 C245        -9.3715     8.8350    17.9943 C         1 MOL       0.0000
    742 C246       -11.4456    10.0354    17.1672 C         1 MOL       0.0000
    743 H214        -6.1548     8.7105    15.6027 H         1 MOL       0.0000
    744 H215        -7.1693     9.5107    14.3889 H         1 MOL       0.0000
    745 H216        -9.4250    10.2229    15.0386 H         1 MOL       0.0000
    746 H217        -6.5038     7.1130    13.7428 H         1 MOL       0.0000
    747 H218        -7.3681     7.8441    17.8255 H         1 MOL       0.0000
    748 H219       -11.5813    10.7248    17.9965 H         1 MOL       0.0000
    749 H220       -11.7621    10.5252    16.2426 H         1 MOL       0.0000
    750 H221        -7.4882     6.5101    15.1251 H         1 MOL       0.0000
    751 H222        -9.8129     8.6179    18.9562 H         1 MOL       0.0000
    752 H223        -8.2107     7.3369    13.7678 H         1 MOL       0.0000
    753 H224       -12.0876     9.1407    17.2586 H         1 MOL       0.0000
    754 N40        -11.7509     8.0787    14.4536 N         1 MOL       0.0000
    755 C247         3.0438     5.5063    15.9512 C         1 MOL       0.0000
    756 C248        -1.4136     0.9001    25.3115 C         1 MOL       0.0000
    757 O157       -10.7849    10.4083    13.3914 O         1 MOL       0.0000
    758 O158       -16.1660    20.6250    15.6770 O         1 MOL       0.0000
    759 O159       -14.9288     1.1666    25.1197 O         1 MOL       0.0000
    760 O160        -1.2875    19.8004    13.5977 O         1 MOL       0.0000
    761 F43          2.7594     5.9398    17.2475 F         1 MOL       0.0000
    762 F44         -2.6620     1.5973    25.9170 F         1 MOL       0.0000
    763 F45         -4.6000    20.2629    14.8689 F         1 MOL       0.0000
    764 F46         -3.5053    18.7388    16.1905 F         1 MOL       0.0000
    765 F47         -0.8356     1.2708    23.8402 F         1 MOL       0.0000
    766 F48         -8.0819    13.7299    25.2183 F         1 MOL       0.0000
    767 S15        -11.1026     8.9719    13.1171 S         1 MOL       0.0000
    768 S16        -17.6523    21.0108    14.8939 S         1 MOL       0.0000
    769 Ti33        13.1446     1.6728    11.3364 Ti        1 MOL       0.0000
    770 Ti34        23.9750     4.5540     1.9716 Ti        1 MOL       0.0000
    771 Ti35        17.2413    -2.2634     9.5164 Ti        1 MOL       0.0000
    772 Ti36        18.7524     6.8987     3.7434 Ti        1 MOL       0.0000
    773 Ti37        17.7539     8.5770     1.8390 Ti        1 MOL       0.0000
    774 Ti38        19.1295    -2.5178    11.4698 Ti        1 MOL       0.0000
    775 Ti39        14.0938    -0.0631     9.4449 Ti        1 MOL       0.0000
    776 Ti40        21.9872     4.8565     3.8191 Ti        1 MOL       0.0000
    777 H225        13.6464     5.5698    11.1169 H         1 MOL       0.0000
    778 H226        24.7838     0.6479     2.2923 H         1 MOL       0.0000
    779 H227         9.1847     0.9161    10.9540 H         1 MOL       0.0000
    780 H228        27.3572     6.5583     2.1722 H         1 MOL       0.0000
    781 H229        20.1051    -6.5523    11.0839 H         1 MOL       0.0000
    782 H230        13.6953     7.9871     2.1610 H         1 MOL       0.0000
    783 H231        13.6133    -0.1258    13.0609 H         1 MOL       0.0000
    784 H232        22.0995     4.3113     0.2717 H         1 MOL       0.0000
    785 H233        19.6394    -3.1849     5.9587 H         1 MOL       0.0000
    786 H234        17.0290     8.7357     7.3624 H         1 MOL       0.0000
    787 H235        10.0211     3.3255     9.0890 H         1 MOL       0.0000
    788 H236        26.7298     2.4697     4.2776 H         1 MOL       0.0000
    789 H237        12.3222     1.8781     5.7552 H         1 MOL       0.0000
    790 H238        14.6538    10.4049     4.1922 H         1 MOL       0.0000
    791 H239        18.1461    11.6798     2.6945 H         1 MOL       0.0000
    792 H240        24.6260    -1.3709     3.4948 H         1 MOL       0.0000
    793 H241        20.8451     6.5788     2.4048 H         1 MOL       0.0000
    794 H242        16.1605    -0.4150    10.8100 H         1 MOL       0.0000
    795 H243        23.3642    -0.5829     9.8595 H         1 MOL       0.0000
    796 H244        21.8831    -1.0520    10.6068 H         1 MOL       0.0000
    797 H245        23.9383     3.8507     8.7606 H         1 MOL       0.0000
    798 H246        23.3686     4.2093     7.1420 H         1 MOL       0.0000
    799 H247        22.8754    -5.5378     9.6694 H         1 MOL       0.0000
    800 H248        21.5962    -4.4372    10.1268 H         1 MOL       0.0000
    801 C249        24.5531     3.8127     4.8351 C         1 MOL       0.0000
    802 C250        12.1840     1.9341     8.4894 C         1 MOL       0.0000
    803 C251        19.8218    -3.2741     8.5917 C         1 MOL       0.0000
    804 C252        16.8163     8.8692     4.7027 C         1 MOL       0.0000
    805 C253        25.4491     3.2084     5.8303 C         1 MOL       0.0000
    806 C254        11.2521     2.5592     7.5123 C         1 MOL       0.0000
    807 C255        20.7620    -3.8885     7.6445 C         1 MOL       0.0000
    808 C256        15.9265     9.5160     5.7025 C         1 MOL       0.0000
    809 C257        25.2003     3.2833     7.2367 C         1 MOL       0.0000
    810 C258        11.4685     2.4392     6.1243 C         1 MOL       0.0000
    811 C259        21.8914    -4.6488     8.0976 C         1 MOL       0.0000
    812 C260        14.8318    10.2890     5.2576 C         1 MOL       0.0000
    813 C261        16.1810     9.3453     7.0574 C         1 MOL       0.0000
    814 C262        20.5142    -3.7563     6.2606 C         1 MOL       0.0000
    815 C263        26.5828     2.5094     5.3546 C         1 MOL       0.0000
    816 C264        10.1519     3.2516     8.0110 C         1 MOL       0.0000
    817 C265        24.7648     0.7270     0.1482 C         1 MOL       0.0000
    818 C266        18.2951    12.5186     0.1732 C         1 MOL       0.0000
    819 C267        22.6143    -0.5759    13.1172 C         1 MOL       0.0000
    820 C268         9.2560     0.9665    13.0978 C         1 MOL       0.0000
    821 C269        19.4992     4.5555     5.7080 C         1 MOL       0.0000
    822 C270        14.7431    -2.5389     7.6261 C         1 MOL       0.0000
    823 C271        19.9940    -4.8842    13.2200 C         1 MOL       0.0000
    824 C272        18.2024    11.0851     0.1357 C         1 MOL       0.0000
    825 C273        21.3164    -1.1927    13.1640 C         1 MOL       0.0000
    826 C274        10.6583     1.3809    13.1223 C         1 MOL       0.0000
    827 C275        24.8042     0.0579     1.3779 C         1 MOL       0.0000
    828 C276        13.6574     6.1583    12.0308 C         1 MOL       0.0000
    829 C277        11.9046     7.3219     1.1661 C         1 MOL       0.0000
    830 C278         8.6232     0.7368    11.8693 C         1 MOL       0.0000
    831 C279        23.3089    -0.3076    11.8838 C         1 MOL       0.0000
    832 C280        13.1938     7.8021     1.2153 C         1 MOL       0.0000
    833 C281        20.1467    -7.0795    12.0329 C         1 MOL       0.0000
    834 C282        24.8259    -1.3432     1.4595 C         1 MOL       0.0000
    835 N41         24.8809    -1.9421     2.6976 N         1 MOL       0.0000
    836 N42         22.7299    -0.4905    10.6448 N         1 MOL       0.0000
    837 N43         24.1195     3.9296     7.7680 N         1 MOL       0.0000
    838 N44         22.2224    -4.8070     9.4150 N         1 MOL       0.0000
    839 O161        23.3768     4.2178     5.2009 O         1 MOL       0.0000
    840 O162        12.9530     0.9833     8.0911 O         1 MOL       0.0000
    841 O163        20.2032    -3.1497     9.8128 O         1 MOL       0.0000
    842 O164        16.7505     9.2989     3.5031 O         1 MOL       0.0000
    843 O165        17.5868     7.9120     5.0892 O         1 MOL       0.0000
    844 O166        18.6513    -2.9057     8.1862 O         1 MOL       0.0000
    845 O167        24.9650     3.8935     3.6234 O         1 MOL       0.0000
    846 O168        12.1420     2.3704     9.6891 O         1 MOL       0.0000
    847 O169        22.2924     3.6386     2.6244 O         1 MOL       0.0000
    848 O170        14.6462     1.4972    10.1894 O         1 MOL       0.0000
    849 O171        23.2312     5.9259     3.0743 O         1 MOL       0.0000
    850 O172        12.8940    -0.2275    10.6821 O         1 MOL       0.0000
    851 O173        17.5006    -3.4354    10.7768 O         1 MOL       0.0000
    852 O174        19.2690     8.4600     3.0049 O         1 MOL       0.0000
    853 O175        18.4545    -1.1739    10.3127 O         1 MOL       0.0000
    854 O176        17.5628     6.7029     2.4875 O         1 MOL       0.0000
    855 O177        20.7203     4.3756     5.3537 O         1 MOL       0.0000
    856 O178        14.0854    -1.5039     8.0043 O         1 MOL       0.0000
    857 O179        19.8718    -4.2896    12.0789 O         1 MOL       0.0000
    858 O180        18.1193    10.3836     1.2309 O         1 MOL       0.0000
    859 O181        20.6739    -1.5015    12.0738 O         1 MOL       0.0000
    860 O182        15.8833     8.5479     1.1708 O         1 MOL       0.0000
    861 O183        15.9049    -2.8334     8.0839 O         1 MOL       0.0000
    862 O184        18.7573     5.4764     5.2146 O         1 MOL       0.0000
    863 O185        25.4121     5.5731     1.2170 O         1 MOL       0.0000
    864 O186        11.2578     1.6127    12.0048 O         1 MOL       0.0000
    865 O187        24.6166     2.8188     1.2464 O         1 MOL       0.0000
    866 O188        13.5260     3.3950    12.0861 O         1 MOL       0.0000
    867 O189        20.4842     6.0301     3.1254 O         1 MOL       0.0000
    868 O190        15.7823    -0.9737    10.1065 O         1 MOL       0.0000
    869 O191        22.9383     4.8049     0.1926 O         1 MOL       0.0000
    870 O192        13.7357     0.8410    13.1209 O         1 MOL       0.0000
    871 H249        19.7004     0.9044     8.6114 H         1 MOL       0.0000
    872 H250         9.3958    10.0580     6.1981 H         1 MOL       0.0000
    873 H251        20.4540     9.6577     5.6733 H         1 MOL       0.0000
    874 H252        20.6974     2.4486     6.8949 H         1 MOL       0.0000
    875 H253        16.0417     3.1699     8.5210 H         1 MOL       0.0000
    876 H254        28.1297    -3.2089     7.1034 H         1 MOL       0.0000
    877 H255        17.3734     1.2728     9.3841 H         1 MOL       0.0000
    878 H256        17.0412     4.7119     6.7996 H         1 MOL       0.0000
    879 H257        21.7901     7.8886     4.5554 H         1 MOL       0.0000
    880 H258        24.2460     7.7946     4.8407 H         1 MOL       0.0000
    881 C283        18.9221     3.6609     6.7417 C         1 MOL       0.0000
    882 C284        17.8131     1.9482     8.6518 C         1 MOL       0.0000
    883 C285        22.2882     8.6283     5.1813 C         1 MOL       0.0000
    884 C286        14.0864    -3.5050     6.7121 C         1 MOL       0.0000
    885 C287        17.6079     3.8733     7.1993 C         1 MOL       0.0000
    886 C288        19.1267     1.7391     8.2111 C         1 MOL       0.0000
    887 C289        21.5356     9.6352     5.7974 C         1 MOL       0.0000
    888 C290         8.3194    10.0878     6.0438 C         1 MOL       0.0000
    889 C291        23.6777     8.5780     5.3398 C         1 MOL       0.0000
    890 C292        28.6924    -4.0043     6.6204 C         1 MOL       0.0000
    891 C293        19.6822     2.5944     7.2584 C         1 MOL       0.0000
    892 C294        17.0562     3.0176     8.1547 C         1 MOL       0.0000
    893 N45         21.5672    10.3329     1.3687 N         1 MOL       0.0000
    894 N46         18.1319     2.2111    12.9602 N         1 MOL       0.0000
    895 C295        21.3518    10.9498     0.1415 C         1 MOL       0.0000
    896 C296        17.4416     3.2084    12.2932 C         1 MOL       0.0000
    897 C297        20.3976     2.1570    11.9615 C         1 MOL       0.0000
    898 C298        21.0988    10.8613     2.6708 C         1 MOL       0.0000
    899 C299        22.4680     9.3491     1.1786 C         1 MOL       0.0000
    900 C300        19.1683     1.3478    12.3639 C         1 MOL       0.0000
    901 H259        16.1429     4.7980    13.1434 H         1 MOL       0.0000
    902 H260        17.5198     3.3542    11.2229 H         1 MOL       0.0000
    903 H261        20.1355     2.9530    11.2528 H         1 MOL       0.0000
    904 H262        20.7067    11.8744     2.5270 H         1 MOL       0.0000
    905 H263        20.8641     2.6292    12.8333 H         1 MOL       0.0000
    906 H264        20.4084    10.1779     3.1356 H         1 MOL       0.0000
    907 H265        21.1316     1.4960    11.4837 H         1 MOL       0.0000
    908 H266        18.7238     0.8279    11.5066 H         1 MOL       0.0000
    909 H267        21.9391    10.9598     3.3582 H         1 MOL       0.0000
    910 H268        22.9545     8.7711     1.9531 H         1 MOL       0.0000
    911 H269        19.4035     0.5877    13.1164 H         1 MOL       0.0000
    912 N47         29.5606    -0.8189     0.3615 N         1 MOL       0.0000
    913 C301        16.3824    -0.2081     1.8125 C         1 MOL       0.0000
    914 C302        25.6654    -6.3702    11.1928 C         1 MOL       0.0000
    915 O193        29.7839    -1.1403     2.8494 O         1 MOL       0.0000
    916 O194        24.3528    11.4428     1.2872 O         1 MOL       0.0000
    917 O195        17.3137     6.2531    11.0908 O         1 MOL       0.0000
    918 O196        19.8236     5.3574    11.1237 O         1 MOL       0.0000
    919 F49         16.1140     1.2873     2.0977 F         1 MOL       0.0000
    920 F50         26.6670    -5.4474    11.8774 F         1 MOL       0.0000
    921 F51         17.3475    -0.0078     0.7622 F         1 MOL       0.0000
    922 F52         16.1648    -0.6457     3.5014 F         1 MOL       0.0000
    923 F53         24.6590    -5.4941    11.0863 F         1 MOL       0.0000
    924 F54         19.1234     8.0737     9.4073 F         1 MOL       0.0000
    925 S17         30.3415    -1.6731     1.5395 S         1 MOL       0.0000
    926 S18         18.5988     6.4182    11.6860 S         1 MOL       0.0000
    927 N48         19.0301     0.8684     3.2206 N         1 MOL       0.0000
    928 N49         17.1385     1.5481     4.1259 N         1 MOL       0.0000
    929 C303        20.0228     0.5756     2.1591 C         1 MOL       0.0000
    930 C304        17.9592     1.6680     3.0499 C         1 MOL       0.0000
    931 C305        18.9605     0.3175     4.4904 C         1 MOL       0.0000
    932 C306        19.8114    -0.7718     1.4674 C         1 MOL       0.0000
    933 C307        17.7805     0.7310     5.0463 C         1 MOL       0.0000
    934 C308        15.7064     1.9314     4.2192 C         1 MOL       0.0000
    935 H270        20.9972     0.6065     2.6547 H         1 MOL       0.0000
    936 H271        19.9827     1.4067     1.4409 H         1 MOL       0.0000
    937 H272        17.7270     2.1189     2.0906 H         1 MOL       0.0000
    938 H273        20.6482    -0.9910     0.7948 H         1 MOL       0.0000
    939 H274        19.7839    -0.2599     4.8775 H         1 MOL       0.0000
    940 H275        15.5707     2.6208     5.0485 H         1 MOL       0.0000
    941 H276        15.3899     2.4212     3.2946 H         1 MOL       0.0000
    942 H277        19.6638    -1.5939     2.1771 H         1 MOL       0.0000
    943 H278        17.3391     0.5139     6.0082 H         1 MOL       0.0000
    944 H279        18.9413    -0.7671     0.8198 H         1 MOL       0.0000
    945 H280        15.0644     1.0367     4.3106 H         1 MOL       0.0000
    946 N50         15.4011    -0.0253     1.5056 N         1 MOL       0.0000
    947 C309        30.1958    -2.5977     3.0032 C         1 MOL       0.0000
    948 C310        25.7384    -7.2039    12.3635 C         1 MOL       0.0000
    949 O197        16.3671     2.3043     0.4434 O         1 MOL       0.0000
    950 O198        10.9860    12.5210     2.7290 O         1 MOL       0.0000
    951 O199        12.2232    -6.9374    12.1717 O         1 MOL       0.0000
    952 O200        25.8645    11.6964     0.6497 O         1 MOL       0.0000
    953 F55         29.9114    -2.1642     4.2995 F         1 MOL       0.0000
    954 F56         24.4900    -6.5067    12.9690 F         1 MOL       0.0000
    955 F57         22.5520    12.1589     1.9209 F         1 MOL       0.0000
    956 F58         23.6467    10.6348     3.2425 F         1 MOL       0.0000
    957 F59         26.3164    -6.8332    10.8922 F         1 MOL       0.0000
    958 F60         19.0701     5.6259    12.2703 F         1 MOL       0.0000
    959 S19         16.0494     0.8679     0.1691 S         1 MOL       0.0000
    960 S20          9.4997    12.9068     1.9459 S         1 MOL       0.0000
    961 Ti41         8.5096    -5.3932    24.4314 Ti        1 MOL       0.0000
    962 Ti42        19.3400    -2.5120    15.0666 Ti        1 MOL       0.0000
    963 Ti43        12.6063    -9.3294    22.6114 Ti        1 MOL       0.0000
    964 Ti44        14.1174    -0.1673    16.8384 Ti        1 MOL       0.0000
    965 Ti45        13.1189     1.5110    14.9340 Ti        1 MOL       0.0000
    966 Ti46        14.4945    -9.5838    24.5648 Ti        1 MOL       0.0000
    967 Ti47         9.4588    -7.1291    22.5399 Ti        1 MOL       0.0000
    968 Ti48        17.3522    -2.2095    16.9140 Ti        1 MOL       0.0000
    969 H281         9.0114    -1.4961    24.2119 H         1 MOL       0.0000
    970 H282        20.1488    -6.4181    15.3873 H         1 MOL       0.0000
    971 H283         4.5497    -6.1499    24.0490 H         1 MOL       0.0000
    972 H284        22.7222    -0.5077    15.2672 H         1 MOL       0.0000
    973 H285        15.4701   -13.6183    24.1789 H         1 MOL       0.0000
    974 H286         9.0603     0.9211    15.2561 H         1 MOL       0.0000
    975 H287         8.9783    -7.1918    26.1559 H         1 MOL       0.0000
    976 H288        17.4645    -2.7547    13.3666 H         1 MOL       0.0000
    977 H289        15.0044   -10.2509    19.0537 H         1 MOL       0.0000
    978 H290        12.3940     1.6697    20.4573 H         1 MOL       0.0000
    979 H291         5.3861    -3.7405    22.1840 H         1 MOL       0.0000
    980 H292        22.0948    -4.5963    17.3726 H         1 MOL       0.0000
    981 H293         7.6872    -5.1879    18.8502 H         1 MOL       0.0000
    982 H294        10.0188     3.3389    17.2872 H         1 MOL       0.0000
    983 H295        13.5111     4.6138    15.7895 H         1 MOL       0.0000
    984 H296        19.9910    -8.4369    16.5898 H         1 MOL       0.0000
    985 H297        16.2101    -0.4872    15.4998 H         1 MOL       0.0000
    986 H298        11.5255    -7.4810    23.9050 H         1 MOL       0.0000
    987 H299        18.7292    -7.6489    22.9545 H         1 MOL       0.0000
    988 H300        17.2481    -8.1180    23.7018 H         1 MOL       0.0000
    989 H301        19.3033    -3.2153    21.8555 H         1 MOL       0.0000
    990 H302        18.7336    -2.8567    20.2370 H         1 MOL       0.0000
    991 H303        18.2404   -12.6038    22.7644 H         1 MOL       0.0000
    992 H304        16.9612   -11.5032    23.2218 H         1 MOL       0.0000
    993 C311        19.9181    -3.2533    17.9301 C         1 MOL       0.0000
    994 C312         7.5490    -5.1319    21.5844 C         1 MOL       0.0000
    995 C313        15.1867   -10.3401    21.6867 C         1 MOL       0.0000
    996 C314        12.1813     1.8032    17.7978 C         1 MOL       0.0000
    997 C315        20.8141    -3.8576    18.9253 C         1 MOL       0.0000
    998 C316         6.6171    -4.5068    20.6073 C         1 MOL       0.0000
    999 C317        16.1270   -10.9545    20.7395 C         1 MOL       0.0000
   1000 C318        11.2915     2.4500    18.7975 C         1 MOL       0.0000
   1001 C319        20.5653    -3.7827    20.3317 C         1 MOL       0.0000
   1002 C320         6.8335    -4.6268    19.2193 C         1 MOL       0.0000
   1003 C321        17.2564   -11.7148    21.1926 C         1 MOL       0.0000
   1004 C322        10.1968     3.2230    18.3526 C         1 MOL       0.0000
   1005 C323        11.5460     2.2792    20.1524 C         1 MOL       0.0000
   1006 C324        15.8792   -10.8223    19.3556 C         1 MOL       0.0000
   1007 C325        21.9478    -4.5566    18.4496 C         1 MOL       0.0000
   1008 C326         5.5170    -3.8144    21.1060 C         1 MOL       0.0000
   1009 C327        20.1298    -6.3390    13.2432 C         1 MOL       0.0000
   1010 C328        13.6601     5.4526    13.2682 C         1 MOL       0.0000
   1011 C329        17.9793    -7.6419    26.2122 C         1 MOL       0.0000
   1012 C330         4.6210    -6.0995    26.1928 C         1 MOL       0.0000
   1013 C331        14.8642    -2.5105    18.8030 C         1 MOL       0.0000
   1014 C332        10.1081    -9.6049    20.7211 C         1 MOL       0.0000
   1015 C333        15.3590   -11.9502    26.3150 C         1 MOL       0.0000
   1016 C334        13.5674     4.0191    13.2307 C         1 MOL       0.0000
   1017 C335        16.6814    -8.2587    26.2590 C         1 MOL       0.0000
   1018 C336         6.0233    -5.6851    26.2173 C         1 MOL       0.0000
   1019 C337        20.1692    -7.0081    14.4729 C         1 MOL       0.0000
   1020 C338         9.0224    -0.9077    25.1258 C         1 MOL       0.0000
   1021 C339         7.2696     0.2559    14.2611 C         1 MOL       0.0000
   1022 C340         3.9882    -6.3292    24.9643 C         1 MOL       0.0000
   1023 C341        18.6739    -7.3736    24.9788 C         1 MOL       0.0000
   1024 C342         8.5588     0.7361    14.3103 C         1 MOL       0.0000
   1025 C343        15.5117   -14.1455    25.1279 C         1 MOL       0.0000
   1026 C344        20.1909    -8.4092    14.5545 C         1 MOL       0.0000
   1027 N51         20.2459    -9.0081    15.7926 N         1 MOL       0.0000
   1028 N52         18.0949    -7.5564    23.7398 N         1 MOL       0.0000
   1029 N53         19.4844    -3.1364    20.8630 N         1 MOL       0.0000
   1030 N54         17.5874   -11.8730    22.5100 N         1 MOL       0.0000
   1031 O201        18.7418    -2.8482    18.2959 O         1 MOL       0.0000
   1032 O202         8.3180    -6.0827    21.1861 O         1 MOL       0.0000
   1033 O203        15.5682   -10.2157    22.9078 O         1 MOL       0.0000
   1034 O204        12.1155     2.2329    16.5982 O         1 MOL       0.0000
   1035 O205        12.9518     0.8460    18.1842 O         1 MOL       0.0000
   1036 O206        14.0163    -9.9717    21.2812 O         1 MOL       0.0000
   1037 O207        20.3300    -3.1725    16.7184 O         1 MOL       0.0000
   1038 O208         7.5070    -4.6956    22.7841 O         1 MOL       0.0000
   1039 O209        17.6574    -3.4274    15.7194 O         1 MOL       0.0000
   1040 O210        10.0112    -5.5688    23.2844 O         1 MOL       0.0000
   1041 O211        18.5962    -1.1401    16.1693 O         1 MOL       0.0000
   1042 O212         8.2590    -7.2935    23.7771 O         1 MOL       0.0000
   1043 O213        12.8655   -10.5014    23.8718 O         1 MOL       0.0000
   1044 O214        14.6340     1.3940    16.0999 O         1 MOL       0.0000
   1045 O215        13.8195    -8.2399    23.4077 O         1 MOL       0.0000
   1046 O216        12.9278    -0.3631    15.5825 O         1 MOL       0.0000
   1047 O217        16.0853    -2.6904    18.4487 O         1 MOL       0.0000
   1048 O218         9.4504    -8.5699    21.0993 O         1 MOL       0.0000
   1049 O219        15.2368   -11.3556    25.1739 O         1 MOL       0.0000
   1050 O220        13.4843     3.3176    14.3259 O         1 MOL       0.0000
   1051 O221        16.0389    -8.5675    25.1688 O         1 MOL       0.0000
   1052 O222        11.2483     1.4819    14.2658 O         1 MOL       0.0000
   1053 O223        11.2699    -9.8994    21.1789 O         1 MOL       0.0000
   1054 O224        14.1223    -1.5896    18.3096 O         1 MOL       0.0000
   1055 O225        20.7771    -1.4929    14.3120 O         1 MOL       0.0000
   1056 O226         6.6228    -5.4533    25.0998 O         1 MOL       0.0000
   1057 O227        19.9816    -4.2472    14.3414 O         1 MOL       0.0000
   1058 O228         8.8910    -3.6709    25.1811 O         1 MOL       0.0000
   1059 O229        15.8492    -1.0359    16.2204 O         1 MOL       0.0000
   1060 O230        11.1473    -8.0397    23.2015 O         1 MOL       0.0000
   1061 O231        18.3033    -2.2611    13.2876 O         1 MOL       0.0000
   1062 O232         9.1007    -6.2250    26.2159 O         1 MOL       0.0000
   1063 H305        15.0654    -6.1616    21.7064 H         1 MOL       0.0000
   1064 H306         4.7608     2.9920    19.2931 H         1 MOL       0.0000
   1065 H307        15.8190     2.5917    18.7683 H         1 MOL       0.0000
   1066 H308        16.0624    -4.6174    19.9899 H         1 MOL       0.0000
   1067 H309        11.4067    -3.8961    21.6160 H         1 MOL       0.0000
   1068 H310        23.4947   -10.2749    20.1984 H         1 MOL       0.0000
   1069 H311        12.7384    -5.7932    22.4791 H         1 MOL       0.0000
   1070 H312        12.4062    -2.3541    19.8946 H         1 MOL       0.0000
   1071 H313        17.1551     0.8226    17.6504 H         1 MOL       0.0000
   1072 H314        19.6110     0.7286    17.9357 H         1 MOL       0.0000
   1073 C345        14.2871    -3.4051    19.8367 C         1 MOL       0.0000
   1074 C346        13.1781    -5.1178    21.7468 C         1 MOL       0.0000
   1075 C347        17.6532     1.5623    18.2763 C         1 MOL       0.0000
   1076 C348         9.4514   -10.5710    19.8071 C         1 MOL       0.0000
   1077 C349        12.9729    -3.1927    20.2943 C         1 MOL       0.0000
   1078 C350        14.4917    -5.3269    21.3061 C         1 MOL       0.0000
   1079 C351        16.9006     2.5692    18.8924 C         1 MOL       0.0000
   1080 C352         3.6844     3.0218    19.1388 C         1 MOL       0.0000
   1081 C353        19.0427     1.5120    18.4348 C         1 MOL       0.0000
   1082 C354        24.0574   -11.0703    19.7154 C         1 MOL       0.0000
   1083 C355        15.0472    -4.4716    20.3534 C         1 MOL       0.0000
   1084 C356        12.4212    -4.0484    21.2497 C         1 MOL       0.0000
   1085 N55         16.9322     3.2669    14.4637 N         1 MOL       0.0000
   1086 N56         13.4969    -4.8549    26.0552 N         1 MOL       0.0000
   1087 C357        16.7168     3.8838    13.2365 C         1 MOL       0.0000
   1088 C358        12.8066    -3.8576    25.3882 C         1 MOL       0.0000
   1089 C359        15.7626    -4.9090    25.0565 C         1 MOL       0.0000
   1090 C360        16.4638     3.7953    15.7658 C         1 MOL       0.0000
   1091 C361        17.8330     2.2831    14.2736 C         1 MOL       0.0000
   1092 C362        14.5333    -5.7182    25.4589 C         1 MOL       0.0000
   1093 H315        11.5079    -2.2680    26.2384 H         1 MOL       0.0000
   1094 H316        12.8848    -3.7118    24.3179 H         1 MOL       0.0000
   1095 H317        15.5005    -4.1130    24.3478 H         1 MOL       0.0000
   1096 H318        16.0717     4.8084    15.6220 H         1 MOL       0.0000
   1097 H319        16.2291    -4.4368    25.9283 H         1 MOL       0.0000
   1098 H320        15.7734     3.1119    16.2306 H         1 MOL       0.0000
   1099 H321        16.4966    -5.5700    24.5787 H         1 MOL       0.0000
   1100 H322        14.0888    -6.2381    24.6016 H         1 MOL       0.0000
   1101 H323        17.3041     3.8938    16.4532 H         1 MOL       0.0000
   1102 H324        18.3195     1.7051    15.0481 H         1 MOL       0.0000
   1103 H325        14.7685    -6.4783    26.2114 H         1 MOL       0.0000
   1104 N57         24.9256    -7.8849    13.4565 N         1 MOL       0.0000
   1105 C363        11.7474    -7.2741    14.9075 C         1 MOL       0.0000
   1106 C364        21.0304   -13.4362    24.2878 C         1 MOL       0.0000
   1107 O233        25.1489    -8.2063    15.9444 O         1 MOL       0.0000
   1108 O234        19.7178     4.3768    14.3822 O         1 MOL       0.0000
   1109 O235        12.6787    -0.8129    24.1858 O         1 MOL       0.0000
   1110 O236        15.1886    -1.7086    24.2187 O         1 MOL       0.0000
   1111 F61         11.4790    -5.7787    15.1927 F         1 MOL       0.0000
   1112 F62         22.0320   -12.5134    24.9724 F         1 MOL       0.0000
   1113 F63         12.7125    -7.0738    13.8572 F         1 MOL       0.0000
   1114 F64         11.5298    -7.7117    16.5964 F         1 MOL       0.0000
   1115 F65         20.0240   -12.5601    24.1813 F         1 MOL       0.0000
   1116 F66         14.4884     1.0077    22.5023 F         1 MOL       0.0000
   1117 S21         25.7065    -8.7391    14.6345 S         1 MOL       0.0000
   1118 S22         13.9638    -0.6478    24.7810 S         1 MOL       0.0000
   1119 N58         14.3951    -6.1976    16.3156 N         1 MOL       0.0000
   1120 N59         12.5035    -5.5179    17.2209 N         1 MOL       0.0000
   1121 C365        15.3878    -6.4904    15.2541 C         1 MOL       0.0000
   1122 C366        13.3242    -5.3980    16.1449 C         1 MOL       0.0000
   1123 C367        14.3255    -6.7485    17.5854 C         1 MOL       0.0000
   1124 C368        15.1764    -7.8378    14.5624 C         1 MOL       0.0000
   1125 C369        13.1455    -6.3350    18.1413 C         1 MOL       0.0000
   1126 C370        11.0714    -5.1346    17.3142 C         1 MOL       0.0000
   1127 H326        16.3622    -6.4595    15.7497 H         1 MOL       0.0000
   1128 H327        15.3477    -5.6593    14.5359 H         1 MOL       0.0000
   1129 H328        13.0920    -4.9471    15.1856 H         1 MOL       0.0000
   1130 H329        16.0132    -8.0570    13.8898 H         1 MOL       0.0000
   1131 H330        15.1489    -7.3259    17.9725 H         1 MOL       0.0000
   1132 H331        10.9357    -4.4452    18.1435 H         1 MOL       0.0000
   1133 H332        10.7549    -4.6448    16.3896 H         1 MOL       0.0000
   1134 H333        15.0288    -8.6599    15.2721 H         1 MOL       0.0000
   1135 H334        12.7041    -6.5521    19.1032 H         1 MOL       0.0000
   1136 H335        14.3063    -7.8331    13.9148 H         1 MOL       0.0000
   1137 H336        10.4294    -6.0293    17.4056 H         1 MOL       0.0000
   1138 N60         10.7661    -7.0913    14.6006 N         1 MOL       0.0000
   1139 C371        25.5608    -9.6637    16.0982 C         1 MOL       0.0000
   1140 C372        21.1034   -14.2699    25.4585 C         1 MOL       0.0000
   1141 O237        11.7321    -4.7617    13.5384 O         1 MOL       0.0000
   1142 O238         6.3510     5.4550    15.8240 O         1 MOL       0.0000
   1143 O239         7.5882   -14.0034    25.2667 O         1 MOL       0.0000
   1144 O240        21.2295     4.6304    13.7447 O         1 MOL       0.0000
   1145 F67         25.2764    -9.2302    17.3945 F         1 MOL       0.0000
   1146 F68         19.8550   -13.5727    26.0640 F         1 MOL       0.0000
   1147 F69         17.9170     5.0929    15.0159 F         1 MOL       0.0000
   1148 F70         19.0117     3.5688    16.3375 F         1 MOL       0.0000
   1149 F71         21.6814   -13.8992    23.9872 F         1 MOL       0.0000
   1150 F72         14.4351    -1.4401    25.3653 F         1 MOL       0.0000
   1151 S23         11.4144    -6.1981    13.2641 S         1 MOL       0.0000
   1152 S24          4.8647     5.8408    15.0409 S         1 MOL       0.0000
   1153 Ti49         6.6276    16.2858    11.2794 Ti        1 MOL       0.0000
   1154 Ti50        17.4580    19.1670     1.9146 Ti        1 MOL       0.0000
   1155 Ti51        10.7242    12.3496     9.4594 Ti        1 MOL       0.0000
   1156 Ti52        12.2354    21.5117     3.6864 Ti        1 MOL       0.0000
   1157 Ti53        11.2369    23.1900     1.7820 Ti        1 MOL       0.0000
   1158 Ti54        12.6125    12.0952    11.4128 Ti        1 MOL       0.0000
   1159 Ti55         7.5768    14.5499     9.3879 Ti        1 MOL       0.0000
   1160 Ti56        15.4702    19.4695     3.7621 Ti        1 MOL       0.0000
   1161 H337         7.1294    20.1828    11.0599 H         1 MOL       0.0000
   1162 H338        18.2668    15.2609     2.2353 H         1 MOL       0.0000
   1163 H339         2.6677    15.5291    10.8970 H         1 MOL       0.0000
   1164 H340        20.8402    21.1713     2.1152 H         1 MOL       0.0000
   1165 H341        13.5881     8.0607    11.0269 H         1 MOL       0.0000
   1166 H342         7.1783    22.6001     2.1040 H         1 MOL       0.0000
   1167 H343         7.0963    14.4872    13.0039 H         1 MOL       0.0000
   1168 H344        15.5825    18.9243     0.2147 H         1 MOL       0.0000
   1169 H345        13.1224    11.4281     5.9017 H         1 MOL       0.0000
   1170 H346        10.5120    23.3487     7.3053 H         1 MOL       0.0000
   1171 H347         3.5041    17.9385     9.0320 H         1 MOL       0.0000
   1172 H348        20.2128    17.0826     4.2206 H         1 MOL       0.0000
   1173 H349         5.8052    16.4911     5.6982 H         1 MOL       0.0000
   1174 H350         8.1368    25.0179     4.1352 H         1 MOL       0.0000
   1175 H351        11.6291    26.2928     2.6375 H         1 MOL       0.0000
   1176 H352        18.1090    13.2421     3.4378 H         1 MOL       0.0000
   1177 H353        14.3281    21.1918     2.3478 H         1 MOL       0.0000
   1178 H354         9.6435    14.1980    10.7530 H         1 MOL       0.0000
   1179 H355        16.8472    14.0301     9.8025 H         1 MOL       0.0000
   1180 H356        15.3661    13.5610    10.5498 H         1 MOL       0.0000
   1181 H357        17.4213    18.4637     8.7035 H         1 MOL       0.0000
   1182 H358        16.8516    18.8223     7.0850 H         1 MOL       0.0000
   1183 H359        16.3584     9.0752     9.6124 H         1 MOL       0.0000
   1184 H360        15.0792    10.1758    10.0698 H         1 MOL       0.0000
   1185 C373        18.0361    18.4257     4.7781 C         1 MOL       0.0000
   1186 C374         5.6670    16.5472     8.4324 C         1 MOL       0.0000
   1187 C375        13.3048    11.3389     8.5347 C         1 MOL       0.0000
   1188 C376        10.2993    23.4822     4.6457 C         1 MOL       0.0000
   1189 C377        18.9321    17.8214     5.7733 C         1 MOL       0.0000
   1190 C378         4.7351    17.1722     7.4553 C         1 MOL       0.0000
   1191 C379        14.2450    10.7245     7.5875 C         1 MOL       0.0000
   1192 C380         9.4095    24.1290     5.6455 C         1 MOL       0.0000
   1193 C381        18.6833    17.8963     7.1797 C         1 MOL       0.0000
   1194 C382         4.9515    17.0522     6.0673 C         1 MOL       0.0000
   1195 C383        15.3744     9.9642     8.0406 C         1 MOL       0.0000
   1196 C384         8.3148    24.9020     5.2006 C         1 MOL       0.0000
   1197 C385         9.6640    23.9582     7.0004 C         1 MOL       0.0000
   1198 C386        13.9972    10.8566     6.2036 C         1 MOL       0.0000
   1199 C387        20.0658    17.1224     5.2976 C         1 MOL       0.0000
   1200 C388         3.6349    17.8646     7.9540 C         1 MOL       0.0000
   1201 C389        18.2478    15.3400     0.0912 C         1 MOL       0.0000
   1202 C390        11.7781    27.1316     0.1162 C         1 MOL       0.0000
   1203 C391        16.0973    14.0371    13.0602 C         1 MOL       0.0000
   1204 C392         2.7390    15.5795    13.0408 C         1 MOL       0.0000
   1205 C393        12.9822    19.1685     5.6510 C         1 MOL       0.0000
   1206 C394         8.2261    12.0742     7.5691 C         1 MOL       0.0000
   1207 C395        13.4770     9.7288    13.1630 C         1 MOL       0.0000
   1208 C396        11.6854    25.6981     0.0787 C         1 MOL       0.0000
   1209 C397        14.7995    13.4203    13.1070 C         1 MOL       0.0000
   1210 C398         4.1413    15.9939    13.0653 C         1 MOL       0.0000
   1211 C399        18.2872    14.6709     1.3209 C         1 MOL       0.0000
   1212 C400         7.1404    20.7713    11.9738 C         1 MOL       0.0000
   1213 C401         5.3876    21.9349     1.1091 C         1 MOL       0.0000
   1214 C402         2.1062    15.3498    11.8123 C         1 MOL       0.0000
   1215 C403        16.7919    14.3054    11.8268 C         1 MOL       0.0000
   1216 C404         6.6768    22.4151     1.1583 C         1 MOL       0.0000
   1217 C405        13.6297     7.5335    11.9759 C         1 MOL       0.0000
   1218 C406        18.3089    13.2698     1.4025 C         1 MOL       0.0000
   1219 N61         18.3639    12.6709     2.6406 N         1 MOL       0.0000
   1220 N62         16.2129    14.1226    10.5878 N         1 MOL       0.0000
   1221 N63         17.6025    18.5426     7.7110 N         1 MOL       0.0000
   1222 N64         15.7054     9.8060     9.3580 N         1 MOL       0.0000
   1223 O241        16.8598    18.8308     5.1439 O         1 MOL       0.0000
   1224 O242         6.4360    15.5963     8.0341 O         1 MOL       0.0000
   1225 O243        13.6862    11.4633     9.7558 O         1 MOL       0.0000
   1226 O244        10.2335    23.9119     3.4461 O         1 MOL       0.0000
   1227 O245        11.0698    22.5250     5.0322 O         1 MOL       0.0000
   1228 O246        12.1343    11.7073     8.1292 O         1 MOL       0.0000
   1229 O247        18.4480    18.5065     3.5664 O         1 MOL       0.0000
   1230 O248         5.6250    16.9834     9.6321 O         1 MOL       0.0000
   1231 O249        15.7754    18.2516     2.5674 O         1 MOL       0.0000
   1232 O250         8.1292    16.1102    10.1324 O         1 MOL       0.0000
   1233 O251        16.7142    20.5389     3.0173 O         1 MOL       0.0000
   1234 O252         6.3770    14.3855    10.6251 O         1 MOL       0.0000
   1235 O253        10.9835    11.1776    10.7198 O         1 MOL       0.0000
   1236 O254        12.7520    23.0730     2.9479 O         1 MOL       0.0000
   1237 O255        11.9375    13.4391    10.2557 O         1 MOL       0.0000
   1238 O256        11.0458    21.3159     2.4305 O         1 MOL       0.0000
   1239 O257        14.2033    18.9886     5.2967 O         1 MOL       0.0000
   1240 O258         7.5684    13.1091     7.9473 O         1 MOL       0.0000
   1241 O259        13.3548    10.3234    12.0219 O         1 MOL       0.0000
   1242 O260        11.6023    24.9966     1.1739 O         1 MOL       0.0000
   1243 O261        14.1569    13.1115    12.0168 O         1 MOL       0.0000
   1244 O262         9.3663    23.1609     1.1138 O         1 MOL       0.0000
   1245 O263         9.3879    11.7796     8.0269 O         1 MOL       0.0000
   1246 O264        12.2403    20.0894     5.1576 O         1 MOL       0.0000
   1247 O265        18.8951    20.1861     1.1600 O         1 MOL       0.0000
   1248 O266         4.7408    16.2257    11.9478 O         1 MOL       0.0000
   1249 O267        18.0995    17.4318     1.1894 O         1 MOL       0.0000
   1250 O268         7.0090    18.0080    12.0291 O         1 MOL       0.0000
   1251 O269        13.9672    20.6431     3.0684 O         1 MOL       0.0000
   1252 O270         9.2653    13.6393    10.0495 O         1 MOL       0.0000
   1253 O271        16.4213    19.4179     0.1356 O         1 MOL       0.0000
   1254 O272         7.2187    15.4540    13.0639 O         1 MOL       0.0000
   1255 H361        13.1834    15.5174     8.5544 H         1 MOL       0.0000
   1256 H362         2.8788    24.6710     6.1411 H         1 MOL       0.0000
   1257 H363        13.9370    24.2707     5.6163 H         1 MOL       0.0000
   1258 H364        14.1804    17.0616     6.8379 H         1 MOL       0.0000
   1259 H365         9.5247    17.7829     8.4640 H         1 MOL       0.0000
   1260 H366        21.6127    11.4041     7.0464 H         1 MOL       0.0000
   1261 H367        10.8564    15.8858     9.3271 H         1 MOL       0.0000
   1262 H368        10.5242    19.3249     6.7426 H         1 MOL       0.0000
   1263 H369        15.2731    22.5016     4.4984 H         1 MOL       0.0000
   1264 H370        17.7290    22.4076     4.7837 H         1 MOL       0.0000
   1265 C407        12.4051    18.2739     6.6847 C         1 MOL       0.0000
   1266 C408        11.2961    16.5612     8.5948 C         1 MOL       0.0000
   1267 C409        15.7712    23.2413     5.1243 C         1 MOL       0.0000
   1268 C410         7.5694    11.1080     6.6551 C         1 MOL       0.0000
   1269 C411        11.0909    18.4863     7.1423 C         1 MOL       0.0000
   1270 C412        12.6097    16.3521     8.1541 C         1 MOL       0.0000
   1271 C413        15.0186    24.2482     5.7404 C         1 MOL       0.0000
   1272 C414         1.8024    24.7008     5.9868 C         1 MOL       0.0000
   1273 C415        17.1607    23.1910     5.2828 C         1 MOL       0.0000
   1274 C416        22.1754    10.6087     6.5634 C         1 MOL       0.0000
   1275 C417        13.1652    17.2074     7.2014 C         1 MOL       0.0000
   1276 C418        10.5392    17.6306     8.0977 C         1 MOL       0.0000
   1277 N65         15.0502    24.9459     1.3117 N         1 MOL       0.0000
   1278 N66         11.6149    16.8241    12.9032 N         1 MOL       0.0000
   1279 C419        14.8348    25.5628     0.0845 C         1 MOL       0.0000
   1280 C420        10.9246    17.8214    12.2362 C         1 MOL       0.0000
   1281 C421        13.8806    16.7700    11.9045 C         1 MOL       0.0000
   1282 C422        14.5818    25.4743     2.6138 C         1 MOL       0.0000
   1283 C423        15.9510    23.9621     1.1216 C         1 MOL       0.0000
   1284 C424        12.6513    15.9608    12.3069 C         1 MOL       0.0000
   1285 H371         9.6259    19.4110    13.0864 H         1 MOL       0.0000
   1286 H372        11.0028    17.9672    11.1659 H         1 MOL       0.0000
   1287 H373        13.6185    17.5660    11.1958 H         1 MOL       0.0000
   1288 H374        14.1897    26.4874     2.4700 H         1 MOL       0.0000
   1289 H375        14.3471    17.2422    12.7763 H         1 MOL       0.0000
   1290 H376        13.8914    24.7909     3.0786 H         1 MOL       0.0000
   1291 H377        14.6146    16.1090    11.4267 H         1 MOL       0.0000
   1292 H378        12.2068    15.4409    11.4496 H         1 MOL       0.0000
   1293 H379        15.4221    25.5728     3.3012 H         1 MOL       0.0000
   1294 H380        16.4375    23.3841     1.8961 H         1 MOL       0.0000
   1295 H381        12.8865    15.2007    13.0594 H         1 MOL       0.0000
   1296 N67         23.0436    13.7941     0.3045 N         1 MOL       0.0000
   1297 C425         9.8654    14.4049     1.7555 C         1 MOL       0.0000
   1298 C426        19.1484     8.2428    11.1358 C         1 MOL       0.0000
   1299 O273        23.2669    13.4727     2.7924 O         1 MOL       0.0000
   1300 O274        17.8358    26.0558     1.2302 O         1 MOL       0.0000
   1301 O275        10.7967    20.8661    11.0338 O         1 MOL       0.0000
   1302 O276        13.3066    19.9704    11.0667 O         1 MOL       0.0000
   1303 F73          9.5970    15.9003     2.0407 F         1 MOL       0.0000
   1304 F74         20.1500     9.1656    11.8204 F         1 MOL       0.0000
   1305 F75         10.8305    14.6052     0.7052 F         1 MOL       0.0000
   1306 F76          9.6478    13.9673     3.4444 F         1 MOL       0.0000
   1307 F77         18.1420     9.1189    11.0293 F         1 MOL       0.0000
   1308 F78         12.6064    22.6867     9.3503 F         1 MOL       0.0000
   1309 S25         23.8245    12.9399     1.4825 S         1 MOL       0.0000
   1310 S26         12.0818    21.0312    11.6290 S         1 MOL       0.0000
   1311 N68         12.5131    15.4814     3.1636 N         1 MOL       0.0000
   1312 N69         10.6215    16.1611     4.0689 N         1 MOL       0.0000
   1313 C427        13.5058    15.1886     2.1021 C         1 MOL       0.0000
   1314 C428        11.4422    16.2810     2.9929 C         1 MOL       0.0000
   1315 C429        12.4435    14.9305     4.4334 C         1 MOL       0.0000
   1316 C430        13.2944    13.8412     1.4104 C         1 MOL       0.0000
   1317 C431        11.2635    15.3440     4.9893 C         1 MOL       0.0000
   1318 C432         9.1894    16.5444     4.1622 C         1 MOL       0.0000
   1319 H382        14.4802    15.2195     2.5977 H         1 MOL       0.0000
   1320 H383        13.4657    16.0197     1.3839 H         1 MOL       0.0000
   1321 H384        11.2100    16.7319     2.0336 H         1 MOL       0.0000
   1322 H385        14.1312    13.6220     0.7378 H         1 MOL       0.0000
   1323 H386        13.2669    14.3531     4.8205 H         1 MOL       0.0000
   1324 H387         9.0537    17.2338     4.9915 H         1 MOL       0.0000
   1325 H388         8.8729    17.0342     3.2376 H         1 MOL       0.0000
   1326 H389        13.1468    13.0191     2.1201 H         1 MOL       0.0000
   1327 H390        10.8221    15.1269     5.9512 H         1 MOL       0.0000
   1328 H391        12.4243    13.8459     0.7628 H         1 MOL       0.0000
   1329 H392         8.5474    15.6497     4.2536 H         1 MOL       0.0000
   1330 N70          8.8841    14.5877     1.4486 N         1 MOL       0.0000
   1331 C433        23.6788    12.0153     2.9462 C         1 MOL       0.0000
   1332 C434        19.2214     7.4091    12.3065 C         1 MOL       0.0000
   1333 O277         9.8501    16.9173     0.3864 O         1 MOL       0.0000
   1334 O278         4.4690    27.1340     2.6720 O         1 MOL       0.0000
   1335 O279         5.7062     7.6756    12.1147 O         1 MOL       0.0000
   1336 O280        19.3475    26.3094     0.5927 O         1 MOL       0.0000
   1337 F79         23.3944    12.4488     4.2425 F         1 MOL       0.0000
   1338 F80         17.9730     8.1063    12.9120 F         1 MOL       0.0000
   1339 F81         16.0350    26.7719     1.8639 F         1 MOL       0.0000
   1340 F82         17.1297    25.2478     3.1855 F         1 MOL       0.0000
   1341 F83         19.7994     7.7798    10.8352 F         1 MOL       0.0000
   1342 F84         12.5531    20.2389    12.2133 F         1 MOL       0.0000
   1343 S27          9.5324    15.4809     0.1121 S         1 MOL       0.0000
   1344 S28          2.9827    27.5198     1.8889 S         1 MOL       0.0000
   1345 Ti57         1.9926     9.2198    24.3744 Ti        1 MOL       0.0000
   1346 Ti58        12.8230    12.1010    15.0096 Ti        1 MOL       0.0000
   1347 Ti59         6.0892     5.2836    22.5544 Ti        1 MOL       0.0000
   1348 Ti60         7.6004    14.4457    16.7814 Ti        1 MOL       0.0000
   1349 Ti61         6.6019    16.1240    14.8770 Ti        1 MOL       0.0000
   1350 Ti62         7.9775     5.0292    24.5078 Ti        1 MOL       0.0000
   1351 Ti63         2.9418     7.4839    22.4829 Ti        1 MOL       0.0000
   1352 Ti64        10.8352    12.4035    16.8571 Ti        1 MOL       0.0000
   1353 H393         2.4944    13.1168    24.1549 H         1 MOL       0.0000
   1354 H394        13.6318     8.1949    15.3303 H         1 MOL       0.0000
   1355 H395        -1.9673     8.4631    23.9920 H         1 MOL       0.0000
   1356 H396        16.2052    14.1053    15.2102 H         1 MOL       0.0000
   1357 H397         8.9531     0.9947    24.1219 H         1 MOL       0.0000
   1358 H398         2.5433    15.5341    15.1991 H         1 MOL       0.0000
   1359 H399         2.4613     7.4212    26.0989 H         1 MOL       0.0000
   1360 H400        10.9475    11.8583    13.3096 H         1 MOL       0.0000
   1361 H401         8.4874     4.3621    18.9967 H         1 MOL       0.0000
   1362 H402         5.8770    16.2827    20.4003 H         1 MOL       0.0000
   1363 H403        -1.1309    10.8725    22.1270 H         1 MOL       0.0000
   1364 H404        15.5778    10.0166    17.3156 H         1 MOL       0.0000
   1365 H405         1.1702     9.4251    18.7932 H         1 MOL       0.0000
   1366 H406         3.5018    17.9519    17.2302 H         1 MOL       0.0000
   1367 H407         6.9941    19.2268    15.7325 H         1 MOL       0.0000
   1368 H408        13.4740     6.1761    16.5328 H         1 MOL       0.0000
   1369 H409         9.6931    14.1258    15.4428 H         1 MOL       0.0000
   1370 H410         5.0085     7.1320    23.8480 H         1 MOL       0.0000
   1371 H411        12.2122     6.9641    22.8975 H         1 MOL       0.0000
   1372 H412        10.7311     6.4950    23.6448 H         1 MOL       0.0000
   1373 H413        12.7863    11.3977    21.7985 H         1 MOL       0.0000
   1374 H414        12.2166    11.7563    20.1800 H         1 MOL       0.0000
   1375 H415        11.7234     2.0092    22.7074 H         1 MOL       0.0000
   1376 H416        10.4442     3.1098    23.1648 H         1 MOL       0.0000
   1377 C435        13.4011    11.3597    17.8731 C         1 MOL       0.0000
   1378 C436         1.0320     9.4811    21.5274 C         1 MOL       0.0000
   1379 C437         8.6698     4.2729    21.6297 C         1 MOL       0.0000
   1380 C438         5.6643    16.4162    17.7407 C         1 MOL       0.0000
   1381 C439        14.2971    10.7554    18.8683 C         1 MOL       0.0000
   1382 C440         0.1001    10.1062    20.5503 C         1 MOL       0.0000
   1383 C441         9.6100     3.6585    20.6825 C         1 MOL       0.0000
   1384 C442         4.7745    17.0630    18.7405 C         1 MOL       0.0000
   1385 C443        14.0483    10.8303    20.2747 C         1 MOL       0.0000
   1386 C444         0.3165     9.9862    19.1623 C         1 MOL       0.0000
   1387 C445        10.7394     2.8982    21.1356 C         1 MOL       0.0000
   1388 C446         3.6798    17.8360    18.2956 C         1 MOL       0.0000
   1389 C447         5.0290    16.8923    20.0954 C         1 MOL       0.0000
   1390 C448         9.3622     3.7906    19.2986 C         1 MOL       0.0000
   1391 C449        15.4308    10.0564    18.3926 C         1 MOL       0.0000
   1392 C450        -1.0001    10.7986    21.0490 C         1 MOL       0.0000
   1393 C451        13.6128     8.2740    13.1862 C         1 MOL       0.0000
   1394 C452         7.1431    20.0656    13.2112 C         1 MOL       0.0000
   1395 C453        11.4623     6.9711    26.1552 C         1 MOL       0.0000
   1396 C454        -1.8960     8.5135    26.1358 C         1 MOL       0.0000
   1397 C455         8.3472    12.1025    18.7460 C         1 MOL       0.0000
   1398 C456         3.5911     5.0082    20.6641 C         1 MOL       0.0000
   1399 C457         8.8420     2.6628    26.2580 C         1 MOL       0.0000
   1400 C458         7.0504    18.6321    13.1737 C         1 MOL       0.0000
   1401 C459        10.1645     6.3543    26.2020 C         1 MOL       0.0000
   1402 C460        -0.4937     8.9279    26.1603 C         1 MOL       0.0000
   1403 C461        13.6522     7.6049    14.4159 C         1 MOL       0.0000
   1404 C462         2.5054    13.7053    25.0688 C         1 MOL       0.0000
   1405 C463         0.7526    14.8689    14.2041 C         1 MOL       0.0000
   1406 C464        -2.5288     8.2838    24.9073 C         1 MOL       0.0000
   1407 C465        12.1569     7.2394    24.9218 C         1 MOL       0.0000
   1408 C466         2.0418    15.3491    14.2533 C         1 MOL       0.0000
   1409 C467         8.9947     0.4675    25.0709 C         1 MOL       0.0000
   1410 C468        13.6739     6.2038    14.4975 C         1 MOL       0.0000
   1411 N71         13.7289     5.6049    15.7356 N         1 MOL       0.0000
   1412 N72         11.5779     7.0566    23.6828 N         1 MOL       0.0000
   1413 N73         12.9675    11.4766    20.8060 N         1 MOL       0.0000
   1414 N74         11.0704     2.7400    22.4530 N         1 MOL       0.0000
   1415 O281        12.2248    11.7648    18.2389 O         1 MOL       0.0000
   1416 O282         1.8010     8.5303    21.1291 O         1 MOL       0.0000
   1417 O283         9.0512     4.3973    22.8508 O         1 MOL       0.0000
   1418 O284         5.5985    16.8459    16.5412 O         1 MOL       0.0000
   1419 O285         6.4348    15.4590    18.1272 O         1 MOL       0.0000
   1420 O286         7.4993     4.6413    21.2242 O         1 MOL       0.0000
   1421 O287        13.8130    11.4405    16.6614 O         1 MOL       0.0000
   1422 O288         0.9900     9.9174    22.7271 O         1 MOL       0.0000
   1423 O289        11.1404    11.1856    15.6624 O         1 MOL       0.0000
   1424 O290         3.4942     9.0442    23.2274 O         1 MOL       0.0000
   1425 O291        12.0792    13.4729    16.1123 O         1 MOL       0.0000
   1426 O292         1.7420     7.3195    23.7201 O         1 MOL       0.0000
   1427 O293         6.3486     4.1116    23.8148 O         1 MOL       0.0000
   1428 O294         8.1170    16.0070    16.0429 O         1 MOL       0.0000
   1429 O295         7.3025     6.3731    23.3507 O         1 MOL       0.0000
   1430 O296         6.4108    14.2499    15.5255 O         1 MOL       0.0000
   1431 O297         9.5683    11.9226    18.3917 O         1 MOL       0.0000
   1432 O298         2.9334     6.0431    21.0423 O         1 MOL       0.0000
   1433 O299         8.7198     3.2574    25.1169 O         1 MOL       0.0000
   1434 O300         6.9673    17.9306    14.2689 O         1 MOL       0.0000
   1435 O301         9.5219     6.0455    25.1118 O         1 MOL       0.0000
   1436 O302         4.7313    16.0949    14.2088 O         1 MOL       0.0000
   1437 O303         4.7529     4.7136    21.1219 O         1 MOL       0.0000
   1438 O304         7.6053    13.0234    18.2526 O         1 MOL       0.0000
   1439 O305        14.2601    13.1201    14.2550 O         1 MOL       0.0000
   1440 O306         0.1058     9.1597    25.0428 O         1 MOL       0.0000
   1441 O307        13.4645    10.3658    14.2844 O         1 MOL       0.0000
   1442 O308         2.3740    10.9420    25.1241 O         1 MOL       0.0000
   1443 O309         9.3322    13.5771    16.1634 O         1 MOL       0.0000
   1444 O310         4.6303     6.5733    23.1445 O         1 MOL       0.0000
   1445 O311        11.7863    12.3519    13.2306 O         1 MOL       0.0000
   1446 O312         2.5837     8.3880    26.1589 O         1 MOL       0.0000
   1447 H417         8.5484     8.4514    21.6494 H         1 MOL       0.0000
   1448 H418        -1.7562    17.6050    19.2361 H         1 MOL       0.0000
   1449 H419         9.3020    17.2047    18.7113 H         1 MOL       0.0000
   1450 H420         9.5454     9.9956    19.9329 H         1 MOL       0.0000
   1451 H421         4.8897    10.7169    21.5590 H         1 MOL       0.0000
   1452 H422        16.9777     4.3381    20.1414 H         1 MOL       0.0000
   1453 H423         6.2214     8.8198    22.4221 H         1 MOL       0.0000
   1454 H424         5.8892    12.2589    19.8376 H         1 MOL       0.0000
   1455 H425        10.6381    15.4356    17.5934 H         1 MOL       0.0000
   1456 H426        13.0940    15.3416    17.8787 H         1 MOL       0.0000
   1457 C469         7.7701    11.2079    19.7797 C         1 MOL       0.0000
   1458 C470         6.6611     9.4952    21.6898 C         1 MOL       0.0000
   1459 C471        11.1362    16.1753    18.2193 C         1 MOL       0.0000
   1460 C472         2.9344     4.0420    19.7501 C         1 MOL       0.0000
   1461 C473         6.4559    11.4203    20.2373 C         1 MOL       0.0000
   1462 C474         7.9747     9.2861    21.2491 C         1 MOL       0.0000
   1463 C475        10.3836    17.1822    18.8354 C         1 MOL       0.0000
   1464 C476        -2.8326    17.6348    19.0818 C         1 MOL       0.0000
   1465 C477        12.5257    16.1250    18.3778 C         1 MOL       0.0000
   1466 C478        17.5404     3.5427    19.6584 C         1 MOL       0.0000
   1467 C479         8.5302    10.1414    20.2964 C         1 MOL       0.0000
   1468 C480         5.9042    10.5646    21.1927 C         1 MOL       0.0000
   1469 N75         10.4152    17.8799    14.4067 N         1 MOL       0.0000
   1470 N76          6.9799     9.7581    25.9982 N         1 MOL       0.0000
   1471 C481        10.1998    18.4968    13.1795 C         1 MOL       0.0000
   1472 C482         6.2896    10.7554    25.3312 C         1 MOL       0.0000
   1473 C483         9.2456     9.7040    24.9995 C         1 MOL       0.0000
   1474 C484         9.9468    18.4083    15.7088 C         1 MOL       0.0000
   1475 C485        11.3160    16.8961    14.2166 C         1 MOL       0.0000
   1476 C486         8.0163     8.8948    25.4019 C         1 MOL       0.0000
   1477 H427         4.9909    12.3450    26.1814 H         1 MOL       0.0000
   1478 H428         6.3678    10.9012    24.2609 H         1 MOL       0.0000
   1479 H429         8.9835    10.5000    24.2908 H         1 MOL       0.0000
   1480 H430         9.5547    19.4214    15.5650 H         1 MOL       0.0000
   1481 H431         9.7121    10.1762    25.8713 H         1 MOL       0.0000
   1482 H432         9.2564    17.7249    16.1736 H         1 MOL       0.0000
   1483 H433         9.9796     9.0430    24.5217 H         1 MOL       0.0000
   1484 H434         7.5718     8.3749    24.5446 H         1 MOL       0.0000
   1485 H435        10.7871    18.5068    16.3962 H         1 MOL       0.0000
   1486 H436        11.8025    16.3181    14.9911 H         1 MOL       0.0000
   1487 H437         8.2515     8.1347    26.1544 H         1 MOL       0.0000
   1488 N77         18.4086     6.7281    13.3995 N         1 MOL       0.0000
   1489 C487         5.2304     7.3389    14.8505 C         1 MOL       0.0000
   1490 C488        14.5134     1.1768    24.2308 C         1 MOL       0.0000
   1491 O313        18.6319     6.4067    15.8874 O         1 MOL       0.0000
   1492 O314        13.2008    18.9898    14.3252 O         1 MOL       0.0000
   1493 O315         6.1617    13.8001    24.1288 O         1 MOL       0.0000
   1494 O316         8.6716    12.9044    24.1617 O         1 MOL       0.0000
   1495 F85          4.9620     8.8343    15.1357 F         1 MOL       0.0000
   1496 F86         15.5150     2.0996    24.9154 F         1 MOL       0.0000
   1497 F87          6.1955     7.5392    13.8002 F         1 MOL       0.0000
   1498 F88          5.0128     6.9013    16.5394 F         1 MOL       0.0000
   1499 F89         13.5070     2.0529    24.1243 F         1 MOL       0.0000
   1500 F90          7.9714    15.6207    22.4453 F         1 MOL       0.0000
   1501 S29         19.1895     5.8739    14.5775 S         1 MOL       0.0000
   1502 S30          7.4468    13.9652    24.7240 S         1 MOL       0.0000
   1503 N78          7.8781     8.4154    16.2586 N         1 MOL       0.0000
   1504 N79          5.9865     9.0951    17.1639 N         1 MOL       0.0000
   1505 C489         8.8708     8.1226    15.1971 C         1 MOL       0.0000
   1506 C490         6.8072     9.2150    16.0879 C         1 MOL       0.0000
   1507 C491         7.8085     7.8645    17.5284 C         1 MOL       0.0000
   1508 C492         8.6594     6.7752    14.5054 C         1 MOL       0.0000
   1509 C493         6.6285     8.2780    18.0843 C         1 MOL       0.0000
   1510 C494         4.5544     9.4784    17.2572 C         1 MOL       0.0000
   1511 H438         9.8452     8.1535    15.6927 H         1 MOL       0.0000
   1512 H439         8.8307     8.9537    14.4789 H         1 MOL       0.0000
   1513 H440         6.5750     9.6659    15.1286 H         1 MOL       0.0000
   1514 H441         9.4962     6.5560    13.8328 H         1 MOL       0.0000
   1515 H442         8.6319     7.2871    17.9155 H         1 MOL       0.0000
   1516 H443         4.4187    10.1678    18.0865 H         1 MOL       0.0000
   1517 H444         4.2379     9.9682    16.3326 H         1 MOL       0.0000
   1518 H445         8.5118     5.9531    15.2151 H         1 MOL       0.0000
   1519 H446         6.1871     8.0609    19.0462 H         1 MOL       0.0000
   1520 H447         7.7893     6.7799    13.8578 H         1 MOL       0.0000
   1521 H448         3.9124     8.5837    17.3486 H         1 MOL       0.0000
   1522 N80          4.2491     7.5217    14.5436 N         1 MOL       0.0000
   1523 C495        19.0438     4.9493    16.0412 C         1 MOL       0.0000
   1524 C496        14.5864     0.3431    25.4015 C         1 MOL       0.0000
   1525 O317         5.2151     9.8513    13.4814 O         1 MOL       0.0000
   1526 O318        -0.1660    20.0680    15.7670 O         1 MOL       0.0000
   1527 O319         1.0712     0.6096    25.2097 O         1 MOL       0.0000
   1528 O320        14.7125    19.2434    13.6877 O         1 MOL       0.0000
   1529 F91         18.7594     5.3828    17.3375 F         1 MOL       0.0000
   1530 F92         13.3380     1.0403    26.0070 F         1 MOL       0.0000
   1531 F93         11.4000    19.7059    14.9589 F         1 MOL       0.0000
   1532 F94         12.4947    18.1818    16.2805 F         1 MOL       0.0000
   1533 F95         15.1644     0.7138    23.9302 F         1 MOL       0.0000
   1534 F96          7.9181    13.1729    25.3083 F         1 MOL       0.0000
   1535 S31          4.8974     8.4149    13.2071 S         1 MOL       0.0000
   1536 S32         -1.6523    20.4538    14.9839 S         1 MOL       0.0000
@<TRIPOS>BOND
     1     1    78 1
     2     1    96 1
     3     7    88 1
     4     7   100 1
     5     1     7 1
     6     1    80 1
     7     1    82 1
     8     7    72 1
     9     7    80 1
    10     7    82 1
    11     1   102 1
    12     1   197 1
    13     1    98 1
    14     2     8 1
    15     2    79 1
    16     2    81 1
    17     2   101 1
    18     2    97 1
    19     2    77 1
    20     2    95 1
    21     3    93 1
    22     3   100 1
    23     3    76 1
    24     3    83 1
    25     3    85 1
    26     3     6 1
    27     4    86 1
    28     4    94 1
    29     4     5 1
    30     4    84 1
    31     4    75 1
    32     4    99 1
    33     5    92 1
    34     5    86 1
    35     5    74 1
    36     5    84 1
    37     5    90 1
    38     6    83 1
    39     6    85 1
    40     6   194 1
    41     6   293 1
    42   194   293 1
    43   208   293 1
    44   194   200 1
    45   194   271 1
    46   194   273 1
    47     6    73 1
    48     6    89 1
    49     6    91 1
    50   194   287 1
    51   194   289 1
    52   194   269 1
    53     8    79 1
    54     8    81 1
    55     8    99 1
    56    16   101 1
    57    25    99 1
    58     8    71 1
    59     8    87 1
    60     9    60 1
    61    59    66 1
    62    10    59 1
    63    49    59 1
    64    34    38 1
    65    34    78 1
    66    11    62 1
    67    34    72 1
    68    12   829 1
    69   829   832 1
    70    31    70 1
    71    32    70 1
    72    43    70 1
    73    13    65 1
    74    14    64 1
    75   197   284 1
    76   197   266 1
    77    15   102 1
    78   102   197 1
    79   197   276 1
    80   197   278 1
    81   197   282 1
    82    17    46 1
    83    36    40 1
    84    45   427 1
    85    36    74 1
    86    18    45 1
    87    36    75 1
    88    19    48 1
    89    20    47 1
    90    47   810 1
    91    21    42 1
    92   166   173 1
    93   166   172 1
    94   166   177 1
    95    22    44 1
    96    40    44 1
    97    44   430 1
    98    40    45 1
    99    56    90 1
   100    23   451 1
   101    50    56 1
   102    50   450 1
   103   408   451 1
   104   450   451 1
   105    24    67 1
   106    66    67 1
   107    26   100 1
   108   118   123 1
   109   103   118 1
   110   107   124 1
   111   109   114 1
   112   114   118 1
   113   114   124 1
   114    35    76 1
   115    39    43 1
   116    39    46 1
   117    35    39 1
   118    35    73 1
   119    27    68 1
   120    28    68 1
   121    29    69 1
   122    30    69 1
   123    33    71 1
   124    37    47 1
   125    41   816 1
   126    33    77 1
   127    33    37 1
   128    37    41 1
   129    41    69 1
   130    38    42 1
   131    38    48 1
   132    51    57 1
   133    57    91 1
   134    57   287 1
   135    51    63 1
   136    51  1021 1
   137    52    58 1
   138    52    62 1
   139    52   256 1
   140    58    96 1
   141    58   284 1
   142   113   123 1
   143   117   124 1
   144    53    94 1
   145    53   113 1
   146   110   117 1
   147   113   117 1
   148    53    87 1
   149    54   116 1
   150    54    88 1
   151    54    93 1
   152   251   258 1
   153    55   241 1
   154    65   241 1
   155   241   251 1
   156    55    89 1
   157    55   289 1
   158    60   242 1
   159    98   248 1
   160   242   248 1
   161   242   642 1
   162   248   282 1
   163   642   643 1
   164    60   449 1
   165    61    64 1
   166   129   132 1
   167    63    68 1
   168   129   135 1
   169   129   137 1
   170   129   139 1
   171    63   830 1
   172  1021  1024 1
   173   104   120 1
   174   105   119 1
   175   111   115 1
   176   115   119 1
   177   119   506 1
   178   115   121 1
   179   506  1268 1
   180   106   123 1
   181   108   122 1
   182   122   884 1
   183   112   121 1
   184   121   888 1
   185   872   888 1
   186   888  1268 1
   187   120   500 1
   188   160   166 1
   189   160   162 1
   190   160   165 1
   191   163   165 1
   192   165   175 1
   193   163   171 1
   194   125   131 1
   195   131   142 1
   196   125   127 1
   197   125   130 1
   198   126   132 1
   199   126   323 1
   200   132   140 1
   201   132   143 1
   202   323   334 1
   203   126   128 1
   204   130   138 1
   205   130   136 1
   206   130   141 1
   207   187   541 1
   208   187   563 1
   209   528   541 1
   210   531   541 1
   211   531   563 1
   212   317   323 1
   213   128   134 1
   214   128   319 1
   215   133   319 1
   216   158   190 1
   217   158   720 1
   218   190   720 1
   219   317   319 1
   220   340   733 1
   221   379   733 1
   222   720   733 1
   223   317   322 1
   224   379   755 1
   225   733   755 1
   226   158   530 1
   227   158   564 1
   228   340   376 1
   229   340  1152 1
   230   733  1152 1
   231   158   573 1
   232   733  1522 1
   233   149   158 1
   234   144   157 1
   235   147   157 1
   236   147   179 1
   237   157   179 1
   238   179   185 1
   239   157   946 1
   240   145   178 1
   241   151   178 1
   242   145   154 1
   243   145   151 1
   244   145   153 1
   245   145   191 1
   246   151   191 1
   247   153   191 1
   248   159   162 1
   249   162   169 1
   250   181   191 1
   251   159   163 1
   252   159   161 1
   253   146   155 1
   254   146   189 1
   255   146   152 1
   256   146   180 1
   257   563   569 1
   258   148   184 1
   259   148   541 1
   260   148   960 1
   261   184   960 1
   262   541   563 1
   263   541   960 1
   264   541  1330 1
   265   563   960 1
   266   950   960 1
   267   960  1297 1
   268   960  1306 1
   269   960  1330 1
   270  1297  1305 1
   271  1297  1306 1
   272  1297  1330 1
   273  1297  1303 1
   274  1297  1343 1
   275  1305  1343 1
   276  1330  1343 1
   277   150   158 1
   278   150   190 1
   279   336   349 1
   280   180   189 1
   281   180   186 1
   282   180   336 1
   283   186   336 1
   284   180  1151 1
   285  1138  1151 1
   286   415   454 1
   287   156   530 1
   288   530   539 1
   289   530   564 1
   290   530   573 1
   291   530   536 1
   292   161   164 1
   293   161   167 1
   294   161   168 1
   295   164   174 1
   296   164   176 1
   297   164   170 1
   298   178   191 1
   299   182   192 1
   300   192   529 1
   301   192   538 1
   302   529   538 1
   303   192   562 1
   304   529   535 1
   305   529   537 1
   306   529   562 1
   307   529   575 1
   308   183   383 1
   309   337   370 1
   310   337   383 1
   311   370   383 1
   312   373   383 1
   313   337   343 1
   314   337   346 1
   315   337   345 1
   316   188   563 1
   317   193   270 1
   318   193   274 1
   319   193   288 1
   320   193   199 1
   321   193   272 1
   322   193   294 1
   323   207   294 1
   324   218   292 1
   325   193   290 1
   326   195   285 1
   327   195   292 1
   328   195   268 1
   329   195   198 1
   330   195   275 1
   331   195   277 1
   332   198   265 1
   333   198   275 1
   334   198   277 1
   335   198   281 1
   336   198   283 1
   337   196   286 1
   338   196   291 1
   339   196   197 1
   340   196   267 1
   341   196   276 1
   342   196   278 1
   343   297   311 1
   344   199   264 1
   345   199   274 1
   346   199   280 1
   347   199   272 1
   348   199   292 1
   349   200   291 1
   350   200   263 1
   351   200   271 1
   352   200   273 1
   353   200   279 1
   354   201   252 1
   355   252   641 1
   356   202   251 1
   357   212   239 1
   358   239  1002 1
   359   203   254 1
   360   244   254 1
   361   244   250 1
   362   204  1021 1
   363   205   257 1
   364   247   281 1
   365   206   256 1
   366   228   232 1
   367   228   266 1
   368   232   237 1
   369   232   236 1
   370   228   267 1
   371   209   238 1
   372   227   268 1
   373   227   265 1
   374   227   231 1
   375   210   237 1
   376   348   722 1
   377   211   240 1
   378   213   234 1
   379   226   230 1
   380   226   264 1
   381   230   234 1
   382   226   270 1
   383   230   240 1
   384   214   236 1
   385   236   622 1
   386   215   643 1
   387   600   643 1
   388   216   259 1
   389   217   291 1
   390   303   307 1
   391   304   313 1
   392   307   313 1
   393   307   311 1
   394   313  1080 1
   395   243   249 1
   396   219   260 1
   397   243   255 1
   398   255   260 1
   399   255  1022 1
   400   224   262 1
   401   249   283 1
   402   220   260 1
   403   221   261 1
   404   222   261 1
   405   223   262 1
   406   225   263 1
   407   225   269 1
   408   225   229 1
   409   233   261 1
   410   229   239 1
   411   233  1008 1
   412   979  1008 1
   413   229   233 1
   414   231   238 1
   415   235   262 1
   416   231   235 1
   417   237   619 1
   418   619   646 1
   419   245   286 1
   420   245   305 1
   421   245   279 1
   422   246   280 1
   423   246   285 1
   424   246   308 1
   425   250   288 1
   426   253   256 1
   427   258   259 1
   428   295   310 1
   429   301   306 1
   430   306   310 1
   431   310   315 1
   432   306   316 1
   433   296   312 1
   434   298   315 1
   435   299   316 1
   436   300   314 1
   437   305   315 1
   438   302   309 1
   439   305   309 1
   440   309   316 1
   441   311   698 1
   442  1080  1460 1
   443   312   692 1
   444   314  1076 1
   445  1014  1048 1
   446  1014  1076 1
   447  1014  1053 1
   448   318   324 1
   449   321   324 1
   450   324   332 1
   451   324   335 1
   452   318   320 1
   453   321   327 1
   454   321   329 1
   455   321   331 1
   456   320   326 1
   457   341   350 1
   458   342   350 1
   459   342   382 1
   460   350   382 1
   461   350   722 1
   462   350   756 1
   463   350   765 1
   464   322   330 1
   465   723   733 1
   466   322   328 1
   467   322   333 1
   468   380   755 1
   469   723   755 1
   470   755   761 1
   471   755  1152 1
   472   338   344 1
   473   338   347 1
   474   338   372 1
   475   338   381 1
   476   372   378 1
   477   372   381 1
   478   339   349 1
   479   339   371 1
   480   371   377 1
   481   343   370 1
   482   343   383 1
   483   358   364 1
   484   358   365 1
   485   358   369 1
   486   345   383 1
   487   356   366 1
   488   356   368 1
   489   356   362 1
   490   349   371 1
   491   349  1138 1
   492   352   358 1
   493   353   356 1
   494   353   360 1
   495   351   353 1
   496   351   354 1
   497   351   355 1
   498   352   354 1
   499   352   357 1
   500   354   361 1
   501   355   357 1
   502   355   363 1
   503   357   367 1
   504   353   359 1
   505   374   384 1
   506   376  1152 1
   507  1489  1498 1
   508  1489  1497 1
   509  1489  1522 1
   510  1489  1535 1
   511  1489  1495 1
   512   384   754 1
   513   384   730 1
   514   384   721 1
   515   418   422 1
   516   385   480 1
   517   385   466 1
   518   391   466 1
   519   391   472 1
   520   385   391 1
   521   385   462 1
   522   385   464 1
   523   391   456 1
   524   391   464 1
   525   418   456 1
   526   418   462 1
   527   385   482 1
   528   385   486 1
   529   385   581 1
   530   391   484 1
   531   386   392 1
   532   386   463 1
   533   386   481 1
   534   386   461 1
   535   386   465 1
   536   386   479 1
   537   386   485 1
   538   387   460 1
   539   387   467 1
   540   387   469 1
   541   387   477 1
   542   387   484 1
   543   410   484 1
   544   387   390 1
   545   388   470 1
   546   388   478 1
   547   388   389 1
   548   388   459 1
   549   388   483 1
   550   388   468 1
   551   389   470 1
   552   389   458 1
   553   389   474 1
   554   389   476 1
   555   389   468 1
   556   390   467 1
   557   390   469 1
   558   390   677 1
   559   578   677 1
   560   578   584 1
   561   578   655 1
   562   578   657 1
   563   390   473 1
   564   578   673 1
   565   390   457 1
   566   390   475 1
   567   390   578 1
   568   441   475 1
   569   441   671 1
   570   578   671 1
   571   578   653 1
   572   392   463 1
   573   392   483 1
   574   409   483 1
   575   392   471 1
   576   392   465 1
   577   400   485 1
   578   392   455 1
   579   393   444 1
   580   443   450 1
   581   394   443 1
   582   433   443 1
   583   403   432 1
   584   395   446 1
   585   396  1213 1
   586  1213  1216 1
   587   416   454 1
   588   427   454 1
   589   397   449 1
   590   398   448 1
   591   581   668 1
   592   581   662 1
   593   399   486 1
   594   486   581 1
   595   581   666 1
   596   581   650 1
   597   581   660 1
   598   482   632 1
   599   423   427 1
   600   401   430 1
   601   423   430 1
   602   424   428 1
   603   420   458 1
   604   402   429 1
   605   420   424 1
   606   420   459 1
   607   424   429 1
   608  1190  1200 1
   609   404   431 1
   610   431  1194 1
   611  1173  1194 1
   612  1190  1194 1
   613   405   426 1
   614   406   428 1
   615   434   440 1
   616   411   452 1
   617   419   460 1
   618   419   423 1
   619   419   457 1
   620   412   452 1
   621   413   453 1
   622   417   421 1
   623   417   461 1
   624   417   455 1
   625   414   453 1
   626   421   425 1
   627   425  1200 1
   628   425   453 1
   629   421   431 1
   630   422   432 1
   631   422   426 1
   632   435   441 1
   633   447   452 1
   634   435   447 1
   635   435  1405 1
   636   447  1214 1
   637  1405  1408 1
   638   436   442 1
   639   436   446 1
   640   436   640 1
   641   442   480 1
   642   442   668 1
   643   437   478 1
   644   497   501 1
   645   497   507 1
   646   437   471 1
   647   437   497 1
   648   438   500 1
   649   438   472 1
   650   438   477 1
   651   635   642 1
   652   439   473 1
   653   439   625 1
   654   439   673 1
   655   449   625 1
   656   625   635 1
   657   440   474 1
   658   632   666 1
   659   444   626 1
   660   626   632 1
   661   445   448 1
   662   509   511 1
   663   509   514 1
   664   509   515 1
   665   514   522 1
   666   514   525 1
   667   514   520 1
   668   515   526 1
   669   501   508 1
   670   494   501 1
   671   502   507 1
   672   487   502 1
   673   488   504 1
   674   489   503 1
   675   495   499 1
   676   499   503 1
   677   499   505 1
   678   547   549 1
   679   547   555 1
   680   490   507 1
   681   491   508 1
   682   493   498 1
   683   498   508 1
   684   498   502 1
   685   492   506 1
   686   496   505 1
   687   505  1272 1
   688  1256  1272 1
   689   512   518 1
   690   510   512 1
   691   510   707 1
   692   701   707 1
   693   707   718 1
   694   512   703 1
   695   701   703 1
   696   701   706 1
   697   510   516 1
   698   516   524 1
   699   513   519 1
   700   513   516 1
   701   513   521 1
   702   513   523 1
   703   516   527 1
   704   517   703 1
   705   542   574 1
   706   532   568 1
   707   532  1344 1
   708   568  1344 1
   709   533   542 1
   710   534   542 1
   711   534   574 1
   712   535   562 1
   713   535   575 1
   714   537   575 1
   715   546   553 1
   716   562   575 1
   717   565   575 1
   718  1335  1535 1
   719  1497  1535 1
   720  1522  1535 1
   721  1525  1535 1
   722   543   546 1
   723   545   548 1
   724   543   545 1
   725   545   551 1
   726   545   552 1
   727   543   547 1
   728   544   546 1
   729   550   557 1
   730   544   549 1
   731   544   550 1
   732   549   559 1
   733   550   556 1
   734   550   561 1
   735   548   554 1
   736   548   558 1
   737   548   560 1
   738   564   720 1
   739   570   720 1
   740   564   570 1
   741   564   573 1
   742   564  1535 1
   743   566   576 1
   744   721   754 1
   745   721   730 1
   746   567   767 1
   747   721   729 1
   748   721   767 1
   749   729   767 1
   750   757   767 1
   751   721   727 1
   752   724   760 1
   753   724  1536 1
   754   760  1536 1
   755   577   654 1
   756   577   672 1
   757   577   583 1
   758   577   656 1
   759   577   658 1
   760   577   678 1
   761   591   678 1
   762   577   674 1
   763   579   676 1
   764   579   652 1
   765   579   669 1
   766   579   582 1
   767   579   659 1
   768   579   661 1
   769   593   622 1
   770   616   620 1
   771   580   662 1
   772   580   670 1
   773   580   581 1
   774   580   651 1
   775   580   660 1
   776   612   616 1
   777   612   650 1
   778   612   651 1
   779   616   621 1
   780   580   675 1
   781   582   659 1
   782   582   661 1
   783   582   649 1
   784   582   665 1
   785   582   667 1
   786   610   614 1
   787   610   654 1
   788   583   664 1
   789   583   676 1
   790   583   648 1
   791   610   648 1
   792   583   656 1
   793   583   658 1
   794   584   647 1
   795   584   655 1
   796   584   657 1
   797   584   663 1
   798   584   675 1
   799   601   675 1
   800   585   636 1
   801   586   635 1
   802   596   623 1
   803   623  1386 1
   804   587   638 1
   805   628   634 1
   806   628   638 1
   807   634   672 1
   808   588  1405 1
   809   607   646 1
   810   608   646 1
   811   589   641 1
   812   631   665 1
   813   590   640 1
   814   598   620 1
   815   592   677 1
   816   594   621 1
   817   595   624 1
   818   597   618 1
   819   742   748 1
   820   742   749 1
   821   742   753 1
   822   602   676 1
   823   702   708 1
   824   708   716 1
   825   708   719 1
   826   702   704 1
   827   705   708 1
   828   627   633 1
   829   603   644 1
   830   627   639 1
   831   639   644 1
   832   705   711 1
   833   705   713 1
   834   705   715 1
   835   639  1406 1
   836   633   667 1
   837   604   644 1
   838   613   623 1
   839   617  1392 1
   840   605   645 1
   841   613   617 1
   842   617   645 1
   843   606   645 1
   844   609   647 1
   845   609   653 1
   846   609   613 1
   847   611   652 1
   848   615   619 1
   849   611   615 1
   850   615   622 1
   851   611   649 1
   852   614   618 1
   853   614   624 1
   854   629   670 1
   855   629   689 1
   856   629   663 1
   857   630   664 1
   858   630   692 1
   859   630   669 1
   860   637   640 1
   861   679   694 1
   862   682   699 1
   863   680   696 1
   864   681   695 1
   865   687   691 1
   866   691   695 1
   867   691   697 1
   868   683   700 1
   869   693   700 1
   870   686   693 1
   871   689   693 1
   872   689   699 1
   873   684   698 1
   874   698  1460 1
   875  1351  1432 1
   876  1398  1432 1
   877  1398  1460 1
   878  1351  1426 1
   879  1351  1416 1
   880  1351  1424 1
   881  1398  1437 1
   882  1351  1444 1
   883   685   690 1
   884   690   694 1
   885   690   700 1
   886   694   699 1
   887   688   697 1
   888   697  1464 1
   889   704   710 1
   890   725   734 1
   891   734   766 1
   892   706   714 1
   893   706   712 1
   894   706   717 1
   895   722   728 1
   896   722   731 1
   897   722   756 1
   898   722   765 1
   899   756   762 1
   900   756   765 1
   901   726   734 1
   902   726   766 1
   903   727   754 1
   904   736   742 1
   905   727   767 1
   906   735   738 1
   907   735   739 1
   908   736   738 1
   909   736   741 1
   910   738   745 1
   911   739   741 1
   912   741   751 1
   913   735   737 1
   914   739   747 1
   915   737   740 1
   916   737   744 1
   917   737   743 1
   918   740   752 1
   919   740   746 1
   920   740   750 1
   921   754   767 1
   922   758   768 1
   923   965  1052 1
   924   769   775 1
   925   769   850 1
   926   965  1046 1
   927   769   846 1
   928   769   848 1
   929   769   864 1
   930   769   866 1
   931   769   870 1
   932   769   965 1
   933   870   965 1
   934   965  1050 1
   935   965  1034 1
   936   965  1044 1
   937   866  1016 1
   938   770   847 1
   939   770   776 1
   940   770   865 1
   941   770   845 1
   942   770   849 1
   943   770   863 1
   944   770   869 1
   945   771   844 1
   946   771   851 1
   947   771   853 1
   948   771   861 1
   949   771   868 1
   950   794   868 1
   951   771   774 1
   952   772   854 1
   953   772   773 1
   954   772   843 1
   955   772   867 1
   956   793   867 1
   957   772   862 1
   958   772   852 1
   959   784   869 1
   960   773   854 1
   961   773   842 1
   962   773   858 1
   963   773   860 1
   964   824   858 1
   965   773   852 1
   966   774   851 1
   967   774   853 1
   968   774  1061 1
   969   774   857 1
   970   774   841 1
   971   774   859 1
   972   825   859 1
   973   825  1055 1
   974   774   962 1
   975   822   884 1
   976   775   850 1
   977   775   856 1
   978   822   856 1
   979   775   840 1
   980   775   848 1
   981   775   868 1
   982   822   861 1
   983   776   847 1
   984   821   881 1
   985   776   867 1
   986   776   855 1
   987   821   855 1
   988   821   862 1
   989   776   849 1
   990   776   839 1
   991   777   828 1
   992   827   834 1
   993   778   827 1
   994   817   827 1
   995   787   816 1
   996   779   830 1
   997   807   814 1
   998   800   838 1
   999   807   811 1
  1000   811   838 1
  1001   781   833 1
  1002   782   832 1
  1003   783   870 1
  1004   785   814 1
  1005   808   812 1
  1006   804   842 1
  1007   786   813 1
  1008   804   808 1
  1009   804   843 1
  1010   808   813 1
  1011   813  1195 1
  1012   788   815 1
  1013   789   810 1
  1014   790   812 1
  1015   812  1198 1
  1016   818   824 1
  1017   791  1219 1
  1018   818  1218 1
  1019  1176  1219 1
  1020  1211  1218 1
  1021  1218  1219 1
  1022   792   835 1
  1023   834   835 1
  1024   795   836 1
  1025   803   844 1
  1026   803   807 1
  1027   803   841 1
  1028   796   836 1
  1029   797   837 1
  1030   801   805 1
  1031   801   845 1
  1032   801   839 1
  1033   798   837 1
  1034   799   838 1
  1035   914   923 1
  1036   914   948 1
  1037   914   957 1
  1038   914   920 1
  1039   806   816 1
  1040   806   810 1
  1041   802   806 1
  1042   802   840 1
  1043   802   846 1
  1044   805   809 1
  1045   809   837 1
  1046   805   815 1
  1047   819   825 1
  1048   831   836 1
  1049   819   831 1
  1050   820   826 1
  1051   820   830 1
  1052   820  1024 1
  1053   826  1052 1
  1054   826   864 1
  1055  1019  1026 1
  1056   823   857 1
  1057   823  1009 1
  1058   823  1057 1
  1059   833  1009 1
  1060  1009  1019 1
  1061  1016  1050 1
  1062   828  1010 1
  1063  1010  1016 1
  1064  1010  1410 1
  1065  1410  1411 1
  1066   828  1217 1
  1067   927   930 1
  1068   929   932 1
  1069   927   929 1
  1070   929   935 1
  1071   929   936 1
  1072   927   931 1
  1073   893   895 1
  1074   893   898 1
  1075   893   899 1
  1076   898   906 1
  1077   898   909 1
  1078   898   904 1
  1079   899   910 1
  1080   886   891 1
  1081   871   886 1
  1082   873   887 1
  1083   879   883 1
  1084   883   887 1
  1085   887  1274 1
  1086   883   889 1
  1087   931   933 1
  1088   881   885 1
  1089   931   939 1
  1090   874   891 1
  1091   881   891 1
  1092   875   892 1
  1093   877   882 1
  1094   882   892 1
  1095   882   886 1
  1096   876   890 1
  1097   885   892 1
  1098   878   885 1
  1099   880   889 1
  1100   896   902 1
  1101   894   896 1
  1102   894  1091 1
  1103  1085  1091 1
  1104  1091  1102 1
  1105   896  1087 1
  1106  1085  1087 1
  1107  1085  1090 1
  1108   894   900 1
  1109   900   908 1
  1110   897   900 1
  1111   897   903 1
  1112   897   905 1
  1113   897   907 1
  1114   900   911 1
  1115   901  1087 1
  1116   926  1488 1
  1117   926   958 1
  1118   926  1332 1
  1119  1488  1501 1
  1120   926  1298 1
  1121   926  1341 1
  1122   956  1331 1
  1123   912   925 1
  1124   915   925 1
  1125   915   947 1
  1126   913   921 1
  1127   913   922 1
  1128   913   946 1
  1129   913   919 1
  1130   913   959 1
  1131   921   959 1
  1132   946   959 1
  1133   916   952 1
  1134   916  1309 1
  1135   955  1309 1
  1136   955  1331 1
  1137  1296  1309 1
  1138  1299  1309 1
  1139  1299  1331 1
  1140  1309  1331 1
  1141  1331  1337 1
  1142   917   926 1
  1143   918   926 1
  1144   918   958 1
  1145   919   946 1
  1146   919   959 1
  1147   930   937 1
  1148   949   959 1
  1149  1298  1307 1
  1150  1298  1332 1
  1151   924  1298 1
  1152  1298  1341 1
  1153  1298  1304 1
  1154   947   953 1
  1155   925   947 1
  1156   928   930 1
  1157   934   941 1
  1158   928   933 1
  1159   928   934 1
  1160   933   943 1
  1161   934   940 1
  1162   934   945 1
  1163   932   938 1
  1164   932   942 1
  1165   932   944 1
  1166   948  1104 1
  1167   954  1104 1
  1168   948   954 1
  1169   948   957 1
  1170  1105  1138 1
  1171  1105  1114 1
  1172   951  1151 1
  1173  1105  1113 1
  1174  1105  1151 1
  1175  1113  1151 1
  1176  1141  1151 1
  1177  1105  1111 1
  1178   958  1488 1
  1179  1332  1488 1
  1180  1332  1338 1
  1181  1108  1144 1
  1182  1108  1501 1
  1183  1501  1523 1
  1184  1332  1341 1
  1185   961  1056 1
  1186   967  1048 1
  1187   967  1060 1
  1188   967  1032 1
  1189   961   967 1
  1190   961  1038 1
  1191   961  1040 1
  1192   961  1042 1
  1193   961  1062 1
  1194   967  1040 1
  1195   967  1042 1
  1196   975  1062 1
  1197   961  1058 1
  1198   962  1061 1
  1199   962   968 1
  1200   962  1039 1
  1201   962  1041 1
  1202   993  1031 1
  1203   962  1057 1
  1204   993   997 1
  1205   962  1055 1
  1206   962  1037 1
  1207   993  1037 1
  1208   963  1060 1
  1209   963  1036 1
  1210   963  1053 1
  1211   963   966 1
  1212   963  1043 1
  1213   963  1045 1
  1214   966  1043 1
  1215   966  1045 1
  1216   966  1049 1
  1217   966  1033 1
  1218   966  1051 1
  1219   964  1046 1
  1220   964  1054 1
  1221   964   965 1
  1222   964  1035 1
  1223   964  1044 1
  1224   964  1059 1
  1225   968  1031 1
  1226   968  1039 1
  1227   968  1041 1
  1228   968  1047 1
  1229   968  1059 1
  1230   985  1059 1
  1231   969  1020 1
  1232  1020  1409 1
  1233   970  1019 1
  1234   980  1007 1
  1235   971  1022 1
  1236  1012  1018 1
  1237  1012  1022 1
  1238  1018  1056 1
  1239   973  1025 1
  1240   991  1030 1
  1241   992  1030 1
  1242   974  1024 1
  1243   982  1004 1
  1244  1004  1390 1
  1245   976  1061 1
  1246   995  1036 1
  1247   999  1003 1
  1248   977  1006 1
  1249   995   999 1
  1250   999  1006 1
  1251   995  1033 1
  1252  1000  1004 1
  1253  1005  1387 1
  1254   978  1005 1
  1255  1000  1005 1
  1256   981  1002 1
  1257   994   998 1
  1258   994  1032 1
  1259   994  1038 1
  1260   983  1411 1
  1261  1368  1411 1
  1262   984  1027 1
  1263   986  1060 1
  1264  1086  1088 1
  1265  1086  1092 1
  1266  1092  1100 1
  1267  1092  1103 1
  1268  1088  1094 1
  1269   987  1028 1
  1270   988  1028 1
  1271  1011  1017 1
  1272  1011  1023 1
  1273   989  1029 1
  1274   990  1029 1
  1275   996  1034 1
  1276   996  1035 1
  1277   996  1000 1
  1278   997  1007 1
  1279   997  1001 1
  1280  1001  1029 1
  1281   998  1002 1
  1282   998  1008 1
  1283  1003  1030 1
  1284  1077  1084 1
  1285  1013  1054 1
  1286  1013  1073 1
  1287  1070  1077 1
  1288  1073  1077 1
  1289  1073  1083 1
  1290  1013  1047 1
  1291  1015  1049 1
  1292  1017  1051 1
  1293  1089  1092 1
  1294  1023  1028 1
  1295  1089  1095 1
  1296  1089  1097 1
  1297  1089  1099 1
  1298  1026  1027 1
  1299  1063  1078 1
  1300  1066  1083 1
  1301  1064  1080 1
  1302  1065  1079 1
  1303  1079  1466 1
  1304  1067  1084 1
  1305  1069  1074 1
  1306  1074  1078 1
  1307  1074  1084 1
  1308  1078  1083 1
  1309  1068  1082 1
  1310  1071  1075 1
  1311  1075  1079 1
  1312  1075  1081 1
  1313  1072  1081 1
  1314  1148  1523 1
  1315  1090  1098 1
  1316  1090  1096 1
  1317  1090  1101 1
  1318  1147  1501 1
  1319  1491  1501 1
  1320  1147  1523 1
  1321  1491  1523 1
  1322  1109  1118 1
  1323  1118  1150 1
  1324  1118  1490 1
  1325  1118  1524 1
  1326  1118  1533 1
  1327  1104  1117 1
  1328  1117  1139 1
  1329  1106  1112 1
  1330  1106  1115 1
  1331  1106  1140 1
  1332  1106  1149 1
  1333  1140  1146 1
  1334  1140  1149 1
  1335  1107  1117 1
  1336  1107  1139 1
  1337  1139  1145 1
  1338  1110  1118 1
  1339  1110  1150 1
  1340  1111  1138 1
  1341  1120  1126 1
  1342  1111  1151 1
  1343  1119  1122 1
  1344  1119  1123 1
  1345  1120  1122 1
  1346  1120  1125 1
  1347  1122  1129 1
  1348  1123  1125 1
  1349  1125  1135 1
  1350  1119  1121 1
  1351  1123  1131 1
  1352  1375  1414 1
  1353  1116  1490 1
  1354  1490  1499 1
  1355  1490  1524 1
  1356  1524  1530 1
  1357  1490  1496 1
  1358  1490  1533 1
  1359  1524  1533 1
  1360  1121  1124 1
  1361  1121  1128 1
  1362  1121  1127 1
  1363  1124  1136 1
  1364  1124  1130 1
  1365  1124  1134 1
  1366  1126  1132 1
  1367  1126  1133 1
  1368  1126  1137 1
  1369  1152  1489 1
  1370  1142  1152 1
  1371  1152  1498 1
  1372  1152  1522 1
  1373  1153  1234 1
  1374  1349  1430 1
  1375  1153  1230 1
  1376  1153  1248 1
  1377  1153  1250 1
  1378  1153  1254 1
  1379  1153  1349 1
  1380  1210  1248 1
  1381  1210  1436 1
  1382  1250  1400 1
  1383  1254  1349 1
  1384  1349  1434 1
  1385  1349  1436 1
  1386  1400  1434 1
  1387  1349  1418 1
  1388  1153  1159 1
  1389  1153  1232 1
  1390  1349  1428 1
  1391  1154  1229 1
  1392  1154  1231 1
  1393  1154  1249 1
  1394  1154  1233 1
  1395  1154  1253 1
  1396  1168  1253 1
  1397  1154  1160 1
  1398  1154  1247 1
  1399  1159  1234 1
  1400  1159  1224 1
  1401  1206  1268 1
  1402  1155  1235 1
  1403  1155  1245 1
  1404  1155  1252 1
  1405  1159  1240 1
  1406  1159  1252 1
  1407  1178  1252 1
  1408  1206  1240 1
  1409  1206  1245 1
  1410  1159  1232 1
  1411  1155  1228 1
  1412  1155  1237 1
  1413  1155  1158 1
  1414  1156  1238 1
  1415  1156  1157 1
  1416  1156  1227 1
  1417  1156  1251 1
  1418  1177  1251 1
  1419  1156  1246 1
  1420  1156  1236 1
  1421  1157  1238 1
  1422  1157  1226 1
  1423  1157  1244 1
  1424  1157  1236 1
  1425  1157  1242 1
  1426  1158  1235 1
  1427  1158  1241 1
  1428  1158  1225 1
  1429  1158  1237 1
  1430  1158  1243 1
  1431  1158  1445 1
  1432  1209  1243 1
  1433  1209  1439 1
  1434  1158  1346 1
  1435  1160  1251 1
  1436  1160  1239 1
  1437  1160  1231 1
  1438  1182  1221 1
  1439  1160  1233 1
  1440  1160  1223 1
  1441  1264  1273 1
  1442  1161  1212 1
  1443  1162  1211 1
  1444  1201  1211 1
  1445  1171  1200 1
  1446  1163  1214 1
  1447  1191  1198 1
  1448  1165  1217 1
  1449  1191  1195 1
  1450  1166  1216 1
  1451  1167  1254 1
  1452  1169  1198 1
  1453  1315  1323 1
  1454  1315  1317 1
  1455  1188  1226 1
  1456  1170  1197 1
  1457  1174  1196 1
  1458  1188  1192 1
  1459  1188  1227 1
  1460  1192  1196 1
  1461  1192  1197 1
  1462  1189  1193 1
  1463  1172  1199 1
  1464  1189  1199 1
  1465  1202  1208 1
  1466  1179  1220 1
  1467  1180  1220 1
  1468  1181  1221 1
  1469  1183  1222 1
  1470  1184  1222 1
  1471  1195  1222 1
  1472  1185  1229 1
  1473  1193  1221 1
  1474  1185  1223 1
  1475  1185  1189 1
  1476  1186  1190 1
  1477  1186  1224 1
  1478  1186  1230 1
  1479  1187  1191 1
  1480  1187  1225 1
  1481  1187  1228 1
  1482  1203  1209 1
  1483  1215  1220 1
  1484  1203  1215 1
  1485  1204  1214 1
  1486  1204  1408 1
  1487  1204  1210 1
  1488  1205  1265 1
  1489  1205  1239 1
  1490  1205  1246 1
  1491  1403  1410 1
  1492  1207  1241 1
  1493  1207  1393 1
  1494  1207  1441 1
  1495  1217  1393 1
  1496  1393  1403 1
  1497  1208  1242 1
  1498  1282  1290 1
  1499  1282  1288 1
  1500  1282  1293 1
  1501  1394  1400 1
  1502  1212  1394 1
  1503  1259  1276 1
  1504  1261  1266 1
  1505  1266  1276 1
  1506  1270  1275 1
  1507  1255  1270 1
  1508  1266  1270 1
  1509  1257  1271 1
  1510  1265  1269 1
  1511  1317  1327 1
  1512  1258  1275 1
  1513  1265  1275 1
  1514  1260  1274 1
  1515  1262  1269 1
  1516  1263  1267 1
  1517  1267  1271 1
  1518  1267  1273 1
  1519  1318  1325 1
  1520  1312  1318 1
  1521  1318  1324 1
  1522  1318  1329 1
  1523  1269  1276 1
  1524  1312  1314 1
  1525  1312  1317 1
  1526  1277  1279 1
  1527  1277  1282 1
  1528  1277  1283 1
  1529  1283  1294 1
  1530  1300  1336 1
  1531  1278  1280 1
  1532  1281  1287 1
  1533  1278  1284 1
  1534  1278  1475 1
  1535  1281  1284 1
  1536  1281  1289 1
  1537  1281  1291 1
  1538  1284  1292 1
  1539  1284  1295 1
  1540  1475  1486 1
  1541  1280  1286 1
  1542  1280  1471 1
  1543  1469  1471 1
  1544  1469  1474 1
  1545  1469  1475 1
  1546  1285  1471 1
  1547  1301  1310 1
  1548  1302  1310 1
  1549  1302  1342 1
  1550  1303  1330 1
  1551  1303  1343 1
  1552  1333  1343 1
  1553  1310  1342 1
  1554  1492  1528 1
  1555  1314  1321 1
  1556  1313  1316 1
  1557  1311  1315 1
  1558  1311  1313 1
  1559  1311  1314 1
  1560  1313  1319 1
  1561  1313  1320 1
  1562  1316  1322 1
  1563  1316  1326 1
  1564  1316  1328 1
  1565  1334  1344 1
  1566  1338  1488 1
  1567  1345  1351 1
  1568  1345  1426 1
  1569  1345  1422 1
  1570  1345  1424 1
  1571  1345  1440 1
  1572  1345  1442 1
  1573  1345  1446 1
  1574  1346  1423 1
  1575  1346  1352 1
  1576  1346  1441 1
  1577  1377  1381 1
  1578  1346  1439 1
  1579  1346  1445 1
  1580  1346  1421 1
  1581  1346  1425 1
  1582  1377  1415 1
  1583  1377  1421 1
  1584  1347  1420 1
  1585  1347  1437 1
  1586  1347  1427 1
  1587  1347  1429 1
  1588  1347  1444 1
  1589  1370  1444 1
  1590  1347  1350 1
  1591  1348  1430 1
  1592  1348  1349 1
  1593  1348  1419 1
  1594  1352  1423 1
  1595  1397  1457 1
  1596  1348  1438 1
  1597  1348  1443 1
  1598  1352  1431 1
  1599  1352  1443 1
  1600  1369  1443 1
  1601  1397  1431 1
  1602  1397  1438 1
  1603  1348  1428 1
  1604  1352  1415 1
  1605  1352  1425 1
  1606  1350  1427 1
  1607  1350  1429 1
  1608  1350  1433 1
  1609  1350  1417 1
  1610  1350  1435 1
  1611  1401  1435 1
  1612  1372  1412 1
  1613  1353  1404 1
  1614  1354  1403 1
  1615  1355  1406 1
  1616  1396  1402 1
  1617  1396  1406 1
  1618  1402  1440 1
  1619  1376  1414 1
  1620  1357  1409 1
  1621  1358  1408 1
  1622  1366  1388 1
  1623  1359  1446 1
  1624  1360  1445 1
  1625  1379  1420 1
  1626  1379  1383 1
  1627  1361  1390 1
  1628  1379  1417 1
  1629  1362  1389 1
  1630  1363  1392 1
  1631  1364  1391 1
  1632  1382  1392 1
  1633  1365  1386 1
  1634  1378  1382 1
  1635  1378  1416 1
  1636  1382  1386 1
  1637  1378  1422 1
  1638  1395  1401 1
  1639  1371  1412 1
  1640  1395  1407 1
  1641  1407  1412 1
  1642  1373  1413 1
  1643  1374  1413 1
  1644  1384  1388 1
  1645  1380  1384 1
  1646  1380  1418 1
  1647  1380  1419 1
  1648  1384  1389 1
  1649  1381  1385 1
  1650  1385  1413 1
  1651  1381  1391 1
  1652  1383  1387 1
  1653  1387  1414 1
  1654  1383  1390 1
  1655  1399  1433 1
  1656  1503  1506 1
  1657  1507  1509 1
  1658  1505  1508 1
  1659  1507  1515 1
  1660  1505  1512 1
  1661  1503  1505 1
  1662  1503  1507 1
  1663  1505  1511 1
  1664  1455  1459 1
  1665  1474  1482 1
  1666  1474  1485 1
  1667  1449  1463 1
  1668  1459  1463 1
  1669  1474  1480 1
  1670  1459  1465 1
  1671  1457  1461 1
  1672  1447  1462 1
  1673  1450  1467 1
  1674  1457  1467 1
  1675  1462  1467 1
  1676  1448  1464 1
  1677  1451  1468 1
  1678  1453  1458 1
  1679  1458  1468 1
  1680  1458  1462 1
  1681  1452  1466 1
  1682  1461  1468 1
  1683  1454  1461 1
  1684  1456  1465 1
  1685  1470  1472 1
  1686  1472  1478 1
  1687  1470  1476 1
  1688  1473  1476 1
  1689  1473  1479 1
  1690  1473  1481 1
  1691  1473  1483 1
  1692  1476  1484 1
  1693  1476  1487 1
  1694  1493  1502 1
  1695  1502  1534 1
  1696  1494  1502 1
  1697  1494  1534 1
  1698  1495  1522 1
  1699  1495  1535 1
  1700  1504  1506 1
  1701  1504  1509 1
  1702  1504  1510 1
  1703  1506  1513 1
  1704  1510  1516 1
  1705  1510  1517 1
  1706  1510  1521 1
  1707  1509  1519 1
  1708  1508  1514 1
  1709  1508  1520 1
  1710  1508  1518 1
  1711  1523  1529 1
  1712  1526  1536 1
