@<TRIPOS>MOLECULE
frame0013
 1536 1580 0 0 0
SMALL
NO_CHARGES

@<TRIPOS>ATOM
      1 Ti1         -2.8554     2.2298    11.2464 Ti        1 MOL       0.0000
      2 Ti2          7.9750     5.1110     1.8816 Ti        1 MOL       0.0000
      3 Ti3          1.2412    -1.7064     9.4264 Ti        1 MOL       0.0000
      4 Ti4          2.7524     7.4557     3.6534 Ti        1 MOL       0.0000
      5 Ti5          1.7539     9.1340     1.7490 Ti        1 MOL       0.0000
      6 Ti6          3.1294    -1.9608    11.3798 Ti        1 MOL       0.0000
      7 Ti7         -1.9062     0.4939     9.3549 Ti        1 MOL       0.0000
      8 Ti8          5.9872     5.4135     3.7290 Ti        1 MOL       0.0000
      9 H1          -2.3536     6.1269    11.0269 H         1 MOL       0.0000
     10 H2           8.7838     1.2049     2.2023 H         1 MOL       0.0000
     11 H3          -6.8153     1.4731    10.8640 H         1 MOL       0.0000
     12 H4          11.3572     7.1153     2.0822 H         1 MOL       0.0000
     13 H5           4.1051    -5.9953    10.9939 H         1 MOL       0.0000
     14 H6          -2.3047     8.5441     2.0711 H         1 MOL       0.0000
     15 H7          -2.3867     0.4312    12.9709 H         1 MOL       0.0000
     16 H8           6.0995     4.8683     0.1817 H         1 MOL       0.0000
     17 H9           3.6394    -2.6279     5.8687 H         1 MOL       0.0000
     18 H10          1.0290     9.2927     7.2723 H         1 MOL       0.0000
     19 H11         -5.9789     3.8825     8.9990 H         1 MOL       0.0000
     20 H12         10.7298     3.0266     4.1876 H         1 MOL       0.0000
     21 H13         -3.6778     2.4351     5.6652 H         1 MOL       0.0000
     22 H14         -1.3462    10.9619     4.1022 H         1 MOL       0.0000
     23 H15          2.1461    12.2368     2.6045 H         1 MOL       0.0000
     24 H16          8.6260    -0.8139     3.4048 H         1 MOL       0.0000
     25 H17          4.8451     7.1358     2.3148 H         1 MOL       0.0000
     26 H18          0.1606     0.1420    10.7200 H         1 MOL       0.0000
     27 H19          7.3642    -0.0259     9.7695 H         1 MOL       0.0000
     28 H20          5.8831    -0.4950    10.5168 H         1 MOL       0.0000
     29 H21          7.9383     4.4077     8.6706 H         1 MOL       0.0000
     30 H22          7.3686     4.7663     7.0520 H         1 MOL       0.0000
     31 H23          6.8754    -4.9808     9.5794 H         1 MOL       0.0000
     32 H24          5.5962    -3.8802    10.0368 H         1 MOL       0.0000
     33 C1           8.5531     4.3697     4.7451 C         1 MOL       0.0000
     34 C2          -3.8160     2.4911     8.3994 C         1 MOL       0.0000
     35 C3           3.8218    -2.7171     8.5017 C         1 MOL       0.0000
     36 C4           0.8163     9.4262     4.6128 C         1 MOL       0.0000
     37 C5           9.4491     3.7654     5.7403 C         1 MOL       0.0000
     38 C6          -4.7479     3.1162     7.4223 C         1 MOL       0.0000
     39 C7           4.7619    -3.3315     7.5545 C         1 MOL       0.0000
     40 C8          -0.0735    10.0730     5.6125 C         1 MOL       0.0000
     41 C9           9.2003     3.8403     7.1467 C         1 MOL       0.0000
     42 C10         -4.5315     2.9962     6.0343 C         1 MOL       0.0000
     43 C11          5.8914    -4.0918     8.0076 C         1 MOL       0.0000
     44 C12         -1.1682    10.8460     5.1676 C         1 MOL       0.0000
     45 C13          0.1810     9.9023     6.9674 C         1 MOL       0.0000
     46 C14          4.5142    -3.1993     6.1706 C         1 MOL       0.0000
     47 C15         10.5828     3.0664     5.2646 C         1 MOL       0.0000
     48 C16         -5.8480     3.8086     7.9210 C         1 MOL       0.0000
     49 C17          8.7648     1.2840     0.0582 C         1 MOL       0.0000
     50 C18          2.2951    13.0756     0.0832 C         1 MOL       0.0000
     51 C19          6.6143    -0.0189    13.0272 C         1 MOL       0.0000
     52 C20         -6.7440     1.5235    13.0078 C         1 MOL       0.0000
     53 C21          3.4992     5.1125     5.6180 C         1 MOL       0.0000
     54 C22         -1.2569    -1.9819     7.5361 C         1 MOL       0.0000
     55 C23          3.9940    -4.3272    13.1300 C         1 MOL       0.0000
     56 C24          2.2024    11.6421     0.0457 C         1 MOL       0.0000
     57 C25          5.3165    -0.6357    13.0740 C         1 MOL       0.0000
     58 C26         -5.3417     1.9379    13.0323 C         1 MOL       0.0000
     59 C27          8.8042     0.6149     1.2879 C         1 MOL       0.0000
     60 C28         -2.3426     6.7153    11.9408 C         1 MOL       0.0000
     61 C29         -4.0954     7.8789     1.0761 C         1 MOL       0.0000
     62 C30         -7.3768     1.2938    11.7793 C         1 MOL       0.0000
     63 C31          7.3089     0.2494    11.7938 C         1 MOL       0.0000
     64 C32         -2.8062     8.3591     1.1253 C         1 MOL       0.0000
     65 C33          4.1467    -6.5225    11.9429 C         1 MOL       0.0000
     66 C34          8.8259    -0.7862     1.3695 C         1 MOL       0.0000
     67 N1           8.8810    -1.3851     2.6076 N         1 MOL       0.0000
     68 N2           6.7299     0.0665    10.5548 N         1 MOL       0.0000
     69 N3           8.1195     4.4866     7.6780 N         1 MOL       0.0000
     70 N4           6.2224    -4.2500     9.3250 N         1 MOL       0.0000
     71 O1           7.3768     4.7748     5.1109 O         1 MOL       0.0000
     72 O2          -3.0470     1.5403     8.0011 O         1 MOL       0.0000
     73 O3           4.2032    -2.5927     9.7228 O         1 MOL       0.0000
     74 O4           0.7505     9.8559     3.4131 O         1 MOL       0.0000
     75 O5           1.5868     8.4690     4.9992 O         1 MOL       0.0000
     76 O6           2.6513    -2.3487     8.0962 O         1 MOL       0.0000
     77 O7           8.9650     4.4505     3.5334 O         1 MOL       0.0000
     78 O8          -3.8580     2.9274     9.5991 O         1 MOL       0.0000
     79 O9           6.2924     4.1956     2.5344 O         1 MOL       0.0000
     80 O10         -1.3538     2.0542    10.0994 O         1 MOL       0.0000
     81 O11          7.2312     6.4829     2.9843 O         1 MOL       0.0000
     82 O12         -3.1060     0.3295    10.5921 O         1 MOL       0.0000
     83 O13          1.5006    -2.8784    10.6868 O         1 MOL       0.0000
     84 O14          3.2690     9.0170     2.9149 O         1 MOL       0.0000
     85 O15          2.4545    -0.6169    10.2227 O         1 MOL       0.0000
     86 O16          1.5628     7.2599     2.3975 O         1 MOL       0.0000
     87 O17          4.7203     4.9326     5.2637 O         1 MOL       0.0000
     88 O18         -1.9146    -0.9469     7.9143 O         1 MOL       0.0000
     89 O19          3.8718    -3.7326    11.9889 O         1 MOL       0.0000
     90 O20          2.1193    10.9406     1.1409 O         1 MOL       0.0000
     91 O21          4.6739    -0.9445    11.9838 O         1 MOL       0.0000
     92 O22         -0.1167     9.1049     1.0808 O         1 MOL       0.0000
     93 O23         -0.0951    -2.2764     7.9939 O         1 MOL       0.0000
     94 O24          2.7573     6.0334     5.1246 O         1 MOL       0.0000
     95 O25          9.4121     6.1301     1.1270 O         1 MOL       0.0000
     96 O26         -4.7422     2.1697    11.9148 O         1 MOL       0.0000
     97 O27          8.6166     3.3758     1.1564 O         1 MOL       0.0000
     98 O28         -2.4740     3.9521    11.9961 O         1 MOL       0.0000
     99 O29          4.4842     6.5871     3.0354 O         1 MOL       0.0000
    100 O30         -0.2177    -0.4167    10.0165 O         1 MOL       0.0000
    101 O31          6.9383     5.3620     0.1026 O         1 MOL       0.0000
    102 O32         -2.2643     1.3980    13.0309 O         1 MOL       0.0000
    103 H25          3.7107     1.4775     8.5340 H         1 MOL       0.0000
    104 H26         -6.6076    10.5879     6.1546 H         1 MOL       0.0000
    105 H27          4.4540    10.1954     5.6184 H         1 MOL       0.0000
    106 H28          4.7038     3.0150     6.8155 H         1 MOL       0.0000
    107 H29          0.0479     3.7348     8.4302 H         1 MOL       0.0000
    108 H30         12.1278    -2.6650     7.0348 H         1 MOL       0.0000
    109 H31          1.3767     1.8352     9.2944 H         1 MOL       0.0000
    110 H32          1.0609     5.2971     6.7422 H         1 MOL       0.0000
    111 H33          5.7937     8.4262     4.5034 H         1 MOL       0.0000
    112 H34          8.2495     8.3252     4.8018 H         1 MOL       0.0000
    113 C35          2.9318     4.2318     6.6668 C         1 MOL       0.0000
    114 C36          1.8193     2.5136     8.5668 C         1 MOL       0.0000
    115 C37          6.2885     9.1534     5.1459 C         1 MOL       0.0000
    116 C38         -1.9218    -2.9839     6.6774 C         1 MOL       0.0000
    117 C39          1.6230     4.4504     7.1304 C         1 MOL       0.0000
    118 C40          3.1366     2.3127     8.1362 C         1 MOL       0.0000
    119 C41          5.5325    10.1597     5.7596 C         1 MOL       0.0000
    120 C42         -7.6868    10.6010     6.0242 C         1 MOL       0.0000
    121 C43          7.6759     9.0959     5.3129 C         1 MOL       0.0000
    122 C44         12.6865    -3.4793     6.5807 C         1 MOL       0.0000
    123 C45          3.6915     3.1669     7.1828 C         1 MOL       0.0000
    124 C46          1.0650     3.5844     8.0716 C         1 MOL       0.0000
    125 N5           5.1578    10.4726     1.2157 N         1 MOL       0.0000
    126 N6           2.0151     2.6252    12.9101 N         1 MOL       0.0000
    127 C47          5.0405    11.1757     0.0366 C         1 MOL       0.0000
    128 C48          1.3046     3.5979    12.2457 C         1 MOL       0.0000
    129 C49          4.3540     2.7019    11.8732 C         1 MOL       0.0000
    130 C50          4.7005    11.0177     2.5132 C         1 MOL       0.0000
    131 C51          6.1925     9.6077     1.0762 C         1 MOL       0.0000
    132 C52          3.1424     1.8757    12.3117 C         1 MOL       0.0000
    133 H35         -0.1608     5.0223    13.0723 H         1 MOL       0.0000
    134 H36          1.5195     3.9055    11.2360 H         1 MOL       0.0000
    135 H37          4.0987     3.4673    11.1327 H         1 MOL       0.0000
    136 H38          4.4099    12.0544     2.4044 H         1 MOL       0.0000
    137 H39          4.8485     3.1904    12.7192 H         1 MOL       0.0000
    138 H40          3.8695    10.4503     2.8856 H         1 MOL       0.0000
    139 H41          5.0629     2.0167    11.3876 H         1 MOL       0.0000
    140 H42          2.7287     1.3416    11.4487 H         1 MOL       0.0000
    141 H43          5.4924    10.8973     3.2554 H         1 MOL       0.0000
    142 H44          6.6630     9.0754     1.8881 H         1 MOL       0.0000
    143 H45          3.4260     1.1293    13.0579 H         1 MOL       0.0000
    144 N7           1.9773     6.5905    13.0089 N         1 MOL       0.0000
    145 C53          0.4313     0.5799     1.6660 C         1 MOL       0.0000
    146 C54          9.4288    -5.5922    10.5923 C         1 MOL       0.0000
    147 O33         13.6955    -0.2578     2.5685 O         1 MOL       0.0000
    148 O34          8.7671    11.5283     1.4582 O         1 MOL       0.0000
    149 O35          1.3172     5.9412    10.5318 O         1 MOL       0.0000
    150 O36          4.0130     6.4439     9.1096 O         1 MOL       0.0000
    151 F1           0.2031     1.9817     2.2843 F         1 MOL       0.0000
    152 F2           9.5308    -3.4302    11.9392 F         1 MOL       0.0000
    153 F3           1.9994     1.4610     0.9346 F         1 MOL       0.0000
    154 F4          -0.3144    -0.2365     3.9438 F         1 MOL       0.0000
    155 F5           8.6800    -4.5653    10.1112 F         1 MOL       0.0000
    156 F6           2.3124     8.0392     8.6044 F         1 MOL       0.0000
    157 S1           7.7650    13.2352     1.3030 S         1 MOL       0.0000
    158 S2           2.5911     6.5868    10.9511 S         1 MOL       0.0000
    159 N8           3.2010     1.5451     3.3454 N         1 MOL       0.0000
    160 N9           1.4527     2.3821     4.4146 N         1 MOL       0.0000
    161 C55          4.1970     1.1924     2.2602 C         1 MOL       0.0000
    162 C56          2.2387     2.5129     3.3161 C         1 MOL       0.0000
    163 C57          3.0294     0.8179     4.5173 C         1 MOL       0.0000
    164 C58          4.0688    -0.2025     1.5876 C         1 MOL       0.0000
    165 C59          1.9311     1.2973     5.1606 C         1 MOL       0.0000
    166 C60          0.0509     2.8570     4.6145 C         1 MOL       0.0000
    167 H46          5.1881     1.2976     2.7088 H         1 MOL       0.0000
    168 H47          4.0810     1.9516     1.4844 H         1 MOL       0.0000
    169 H48          2.0511     3.1849     2.4893 H         1 MOL       0.0000
    170 H49          5.0079    -0.3751     1.0383 H         1 MOL       0.0000
    171 H50          3.6965     0.0062     4.7909 H         1 MOL       0.0000
    172 H51         -0.0513     3.3258     5.5969 H         1 MOL       0.0000
    173 H52         -0.2649     3.5419     3.8173 H         1 MOL       0.0000
    174 H53          3.9299    -1.0405     2.2803 H         1 MOL       0.0000
    175 H54          1.4317     1.0097     6.0669 H         1 MOL       0.0000
    176 H55          3.2550    -0.2207     0.8498 H         1 MOL       0.0000
    177 H56         -0.6123     1.9926     4.5563 H         1 MOL       0.0000
    178 N10         -0.5224     0.5493     0.7828 N         1 MOL       0.0000
    179 C61         -1.4977    -0.8036     3.7988 C         1 MOL       0.0000
    180 C62          9.2585    -6.4472    11.9963 C         1 MOL       0.0000
    181 O37          0.6949     3.2501     0.0908 O         1 MOL       0.0000
    182 O38         -4.9808    12.6606     2.5297 O         1 MOL       0.0000
    183 O39         -3.7130    -6.0010    11.8110 O         1 MOL       0.0000
    184 O40         -5.3225    13.0296     0.0549 O         1 MOL       0.0000
    185 F7          -2.3665    -0.5790     4.7980 F         1 MOL       0.0000
    186 F8           7.8278    -5.9972    12.6567 F         1 MOL       0.0000
    187 F9           6.5613    12.1790     1.9966 F         1 MOL       0.0000
    188 F10         -7.6844    12.4751     3.8215 F         1 MOL       0.0000
    189 F11         10.6784    -5.6304    10.4014 F         1 MOL       0.0000
    190 F12          3.5689     5.6186    11.4532 F         1 MOL       0.0000
    191 S3          -4.4023    -5.0944    12.6893 S         1 MOL       0.0000
    192 S4          -5.7084    13.2337     1.4208 S         1 MOL       0.0000
    193 Ti9         -7.4904    -4.8362    24.3414 Ti        1 MOL       0.0000
    194 Ti10         3.3400    -1.9550    14.9766 Ti        1 MOL       0.0000
    195 Ti11        -3.3938    -8.7724    22.5214 Ti        1 MOL       0.0000
    196 Ti12        -1.8826     0.3897    16.7484 Ti        1 MOL       0.0000
    197 Ti13        -2.8811     2.0680    14.8440 Ti        1 MOL       0.0000
    198 Ti14        -1.5056    -9.0268    24.4748 Ti        1 MOL       0.0000
    199 Ti15        -6.5412    -6.5721    22.4499 Ti        1 MOL       0.0000
    200 Ti16         1.3522    -1.6525    16.8240 Ti        1 MOL       0.0000
    201 H57         -6.9886    -0.9391    24.1219 H         1 MOL       0.0000
    202 H58          4.1488    -5.8611    15.2973 H         1 MOL       0.0000
    203 H59        -11.4503    -5.5929    23.9590 H         1 MOL       0.0000
    204 H60          6.7222     0.0493    15.1772 H         1 MOL       0.0000
    205 H61         -0.5299   -13.0613    24.0889 H         1 MOL       0.0000
    206 H62         -6.9397     1.4781    15.1661 H         1 MOL       0.0000
    207 H63         -7.0217    -6.6348    26.0659 H         1 MOL       0.0000
    208 H64          1.4645    -2.1977    13.2767 H         1 MOL       0.0000
    209 H65         -0.9956    -9.6939    18.9637 H         1 MOL       0.0000
    210 H66         -3.6060     2.2267    20.3673 H         1 MOL       0.0000
    211 H67        -10.6139    -3.1835    22.0940 H         1 MOL       0.0000
    212 H68          6.0948    -4.0393    17.2826 H         1 MOL       0.0000
    213 H69         -8.3127    -4.6309    18.7602 H         1 MOL       0.0000
    214 H70         -5.9812     3.8959    17.1972 H         1 MOL       0.0000
    215 H71         -2.4889     5.1708    15.6995 H         1 MOL       0.0000
    216 H72          3.9910    -7.8799    16.4998 H         1 MOL       0.0000
    217 H73          0.2101     0.0698    15.4098 H         1 MOL       0.0000
    218 H74         -4.4744    -6.9240    23.8150 H         1 MOL       0.0000
    219 H75          2.7292    -7.0919    22.8645 H         1 MOL       0.0000
    220 H76          1.2481    -7.5610    23.6118 H         1 MOL       0.0000
    221 H77          3.3033    -2.6583    21.7655 H         1 MOL       0.0000
    222 H78          2.7336    -2.2997    20.1470 H         1 MOL       0.0000
    223 H79          2.2404   -12.0468    22.6744 H         1 MOL       0.0000
    224 H80          0.9612   -10.9462    23.1318 H         1 MOL       0.0000
    225 C63          3.9181    -2.6963    17.8401 C         1 MOL       0.0000
    226 C64         -8.4510    -4.5749    21.4944 C         1 MOL       0.0000
    227 C65         -0.8132    -9.7831    21.5967 C         1 MOL       0.0000
    228 C66         -3.8187     2.3602    17.7078 C         1 MOL       0.0000
    229 C67          4.8141    -3.3006    18.8353 C         1 MOL       0.0000
    230 C68         -9.3829    -3.9498    20.5173 C         1 MOL       0.0000
    231 C69          0.1269   -10.3975    20.6495 C         1 MOL       0.0000
    232 C70         -4.7085     3.0070    18.7075 C         1 MOL       0.0000
    233 C71          4.5653    -3.2257    20.2417 C         1 MOL       0.0000
    234 C72         -9.1665    -4.0698    19.1293 C         1 MOL       0.0000
    235 C73          1.2564   -11.1578    21.1026 C         1 MOL       0.0000
    236 C74         -5.8032     3.7800    18.2626 C         1 MOL       0.0000
    237 C75         -4.4540     2.8362    20.0624 C         1 MOL       0.0000
    238 C76         -0.1208   -10.2653    19.2656 C         1 MOL       0.0000
    239 C77          5.9478    -3.9996    18.3596 C         1 MOL       0.0000
    240 C78        -10.4831    -3.2574    21.0160 C         1 MOL       0.0000
    241 C79          4.1298    -5.7820    13.1532 C         1 MOL       0.0000
    242 C80         -2.3399     6.0096    13.1782 C         1 MOL       0.0000
    243 C81          1.9793    -7.0849    26.1222 C         1 MOL       0.0000
    244 C82        -11.3790    -5.5425    26.1028 C         1 MOL       0.0000
    245 C83         -1.1358    -1.9535    18.7130 C         1 MOL       0.0000
    246 C84         -5.8919    -9.0479    20.6311 C         1 MOL       0.0000
    247 C85         -0.6410   -11.3932    26.2250 C         1 MOL       0.0000
    248 C86         -2.4326     4.5761    13.1407 C         1 MOL       0.0000
    249 C87          0.6815    -7.7017    26.1690 C         1 MOL       0.0000
    250 C88         -9.9767    -5.1281    26.1273 C         1 MOL       0.0000
    251 C89          4.1692    -6.4511    14.3829 C         1 MOL       0.0000
    252 C90         -6.9776    -0.3507    25.0358 C         1 MOL       0.0000
    253 C91         -8.7304     0.8129    14.1711 C         1 MOL       0.0000
    254 C92        -12.0118    -5.7722    24.8743 C         1 MOL       0.0000
    255 C93          2.6739    -6.8166    24.8888 C         1 MOL       0.0000
    256 C94         -7.4412     1.2931    14.2203 C         1 MOL       0.0000
    257 C95         -0.4883   -13.5885    25.0379 C         1 MOL       0.0000
    258 C96          4.1909    -7.8522    14.4645 C         1 MOL       0.0000
    259 N11          4.2460    -8.4511    15.7026 N         1 MOL       0.0000
    260 N12          2.0949    -6.9995    23.6498 N         1 MOL       0.0000
    261 N13          3.4845    -2.5794    20.7730 N         1 MOL       0.0000
    262 N14          1.5874   -11.3160    22.4200 N         1 MOL       0.0000
    263 O41          2.7418    -2.2912    18.2059 O         1 MOL       0.0000
    264 O42         -7.6820    -5.5257    21.0961 O         1 MOL       0.0000
    265 O43         -0.4318    -9.6587    22.8178 O         1 MOL       0.0000
    266 O44         -3.8845     2.7899    16.5082 O         1 MOL       0.0000
    267 O45         -3.0482     1.4030    18.0942 O         1 MOL       0.0000
    268 O46         -1.9837    -9.4147    21.1912 O         1 MOL       0.0000
    269 O47          4.3300    -2.6155    16.6284 O         1 MOL       0.0000
    270 O48         -8.4930    -4.1386    22.6941 O         1 MOL       0.0000
    271 O49          1.6574    -2.8704    15.6294 O         1 MOL       0.0000
    272 O50         -5.9888    -5.0118    23.1944 O         1 MOL       0.0000
    273 O51          2.5962    -0.5831    16.0793 O         1 MOL       0.0000
    274 O52         -7.7410    -6.7365    23.6871 O         1 MOL       0.0000
    275 O53         -3.1344    -9.9444    23.7818 O         1 MOL       0.0000
    276 O54         -1.3660     1.9510    16.0099 O         1 MOL       0.0000
    277 O55         -2.1805    -7.6829    23.3177 O         1 MOL       0.0000
    278 O56         -3.0722     0.1939    15.4925 O         1 MOL       0.0000
    279 O57          0.0853    -2.1334    18.3587 O         1 MOL       0.0000
    280 O58         -6.5496    -8.0129    21.0093 O         1 MOL       0.0000
    281 O59         -0.7632   -10.7986    25.0839 O         1 MOL       0.0000
    282 O60         -2.5157     3.8746    14.2359 O         1 MOL       0.0000
    283 O61          0.0389    -8.0105    25.0788 O         1 MOL       0.0000
    284 O62         -4.7517     2.0389    14.1758 O         1 MOL       0.0000
    285 O63         -4.7301    -9.3424    21.0889 O         1 MOL       0.0000
    286 O64         -1.8777    -1.0326    18.2196 O         1 MOL       0.0000
    287 O65          4.7771    -0.9359    14.2220 O         1 MOL       0.0000
    288 O66         -9.3772    -4.8963    25.0098 O         1 MOL       0.0000
    289 O67          3.9816    -3.6902    14.2514 O         1 MOL       0.0000
    290 O68         -7.1090    -3.1139    25.0911 O         1 MOL       0.0000
    291 O69         -0.1508    -0.4789    16.1304 O         1 MOL       0.0000
    292 O70         -4.8527    -7.4827    23.1115 O         1 MOL       0.0000
    293 O71          2.3033    -1.7041    13.1976 O         1 MOL       0.0000
    294 O72         -6.8993    -5.6680    26.1259 O         1 MOL       0.0000
    295 H81         -0.9243    -5.5885    21.6290 H         1 MOL       0.0000
    296 H82        -11.2426     3.5219    19.2496 H         1 MOL       0.0000
    297 H83         -0.1810     3.1294    18.7134 H         1 MOL       0.0000
    298 H84          0.0688    -4.0510    19.9105 H         1 MOL       0.0000
    299 H85         -4.5871    -3.3312    21.5252 H         1 MOL       0.0000
    300 H86          7.4928    -9.7310    20.1298 H         1 MOL       0.0000
    301 H87         -3.2583    -5.2308    22.3894 H         1 MOL       0.0000
    302 H88         -3.5741    -1.7689    19.8372 H         1 MOL       0.0000
    303 H89          1.1587     1.3602    17.5984 H         1 MOL       0.0000
    304 H90          3.6145     1.2592    17.8968 H         1 MOL       0.0000
    305 C97         -1.7032    -2.8342    19.7618 C         1 MOL       0.0000
    306 C98         -2.8157    -4.5524    21.6618 C         1 MOL       0.0000
    307 C99          1.6535     2.0874    18.2409 C         1 MOL       0.0000
    308 C100        -6.5568   -10.0499    19.7724 C         1 MOL       0.0000
    309 C101        -3.0120    -2.6156    20.2254 C         1 MOL       0.0000
    310 C102        -1.4984    -4.7533    21.2312 C         1 MOL       0.0000
    311 C103         0.8975     3.0937    18.8546 C         1 MOL       0.0000
    312 C104       -12.3218     3.5350    19.1192 C         1 MOL       0.0000
    313 C105         3.0409     2.0299    18.4079 C         1 MOL       0.0000
    314 C106         8.0515   -10.5453    19.6757 C         1 MOL       0.0000
    315 C107        -0.9435    -3.8991    20.2778 C         1 MOL       0.0000
    316 C108        -3.5700    -3.4816    21.1666 C         1 MOL       0.0000
    317 N15          0.5228     3.4066    14.3107 N         1 MOL       0.0000
    318 N16         -2.6199    -4.4408    26.0051 N         1 MOL       0.0000
    319 C109         0.4055     4.1097    13.1316 C         1 MOL       0.0000
    320 C110        -3.3304    -3.4681    25.3407 C         1 MOL       0.0000
    321 C111        -0.2810    -4.3641    24.9682 C         1 MOL       0.0000
    322 C112         0.0655     3.9517    15.6082 C         1 MOL       0.0000
    323 C113         1.5575     2.5417    14.1712 C         1 MOL       0.0000
    324 C114        -1.4926    -5.1903    25.4067 C         1 MOL       0.0000
    325 H91         -4.7958    -2.0437    26.1673 H         1 MOL       0.0000
    326 H92         -3.1155    -3.1605    24.3310 H         1 MOL       0.0000
    327 H93         -0.5363    -3.5987    24.2277 H         1 MOL       0.0000
    328 H94         -0.2251     4.9884    15.4994 H         1 MOL       0.0000
    329 H95          0.2135    -3.8756    25.8142 H         1 MOL       0.0000
    330 H96         -0.7655     3.3843    15.9806 H         1 MOL       0.0000
    331 H97          0.4279    -5.0493    24.4826 H         1 MOL       0.0000
    332 H98         -1.9063    -5.7244    24.5437 H         1 MOL       0.0000
    333 H99          0.8574     3.8313    16.3504 H         1 MOL       0.0000
    334 H100         2.0280     2.0094    14.9831 H         1 MOL       0.0000
    335 H101        -1.2090    -5.9367    26.1529 H         1 MOL       0.0000
    336 N17         -2.6577    -0.4755    26.1039 N         1 MOL       0.0000
    337 C115        -4.2037    -6.4861    14.7610 C         1 MOL       0.0000
    338 C116         4.7938   -12.6582    23.6873 C         1 MOL       0.0000
    339 O73          9.0605    -7.3238    15.6635 O         1 MOL       0.0000
    340 O74          4.1321     4.4623    14.5532 O         1 MOL       0.0000
    341 O75         -3.3178    -1.1248    23.6268 O         1 MOL       0.0000
    342 O76         -0.6220    -0.6221    22.2046 O         1 MOL       0.0000
    343 F13         -4.4319    -5.0843    15.3793 F         1 MOL       0.0000
    344 F14          4.8958   -10.4962    25.0342 F         1 MOL       0.0000
    345 F15         -2.6356    -5.6050    14.0296 F         1 MOL       0.0000
    346 F16         -4.9494    -7.3025    17.0388 F         1 MOL       0.0000
    347 F17          4.0450   -11.6313    23.2062 F         1 MOL       0.0000
    348 F18         -2.3226     0.9732    21.6994 F         1 MOL       0.0000
    349 S5           3.1300     6.1692    14.3980 S         1 MOL       0.0000
    350 S6          -2.0439    -0.4792    24.0461 S         1 MOL       0.0000
    351 N18         -1.4340    -5.5209    16.4404 N         1 MOL       0.0000
    352 N19         -3.1823    -4.6839    17.5096 N         1 MOL       0.0000
    353 C117        -0.4380    -5.8736    15.3552 C         1 MOL       0.0000
    354 C118        -2.3963    -4.5531    16.4111 C         1 MOL       0.0000
    355 C119        -1.6056    -6.2481    17.6123 C         1 MOL       0.0000
    356 C120        -0.5662    -7.2685    14.6826 C         1 MOL       0.0000
    357 C121        -2.7039    -5.7687    18.2556 C         1 MOL       0.0000
    358 C122        -4.5841    -4.2090    17.7095 C         1 MOL       0.0000
    359 H102         0.5531    -5.7684    15.8038 H         1 MOL       0.0000
    360 H103        -0.5540    -5.1144    14.5794 H         1 MOL       0.0000
    361 H104        -2.5839    -3.8811    15.5843 H         1 MOL       0.0000
    362 H105         0.3729    -7.4411    14.1333 H         1 MOL       0.0000
    363 H106        -0.9385    -7.0598    17.8859 H         1 MOL       0.0000
    364 H107        -4.6863    -3.7402    18.6919 H         1 MOL       0.0000
    365 H108        -4.8999    -3.5241    16.9123 H         1 MOL       0.0000
    366 H109        -0.7051    -8.1065    15.3753 H         1 MOL       0.0000
    367 H110        -3.2033    -6.0563    19.1619 H         1 MOL       0.0000
    368 H111        -1.3800    -7.2867    13.9448 H         1 MOL       0.0000
    369 H112        -5.2473    -5.0734    17.6513 H         1 MOL       0.0000
    370 N20         -5.1574    -6.5167    13.8778 N         1 MOL       0.0000
    371 C123        -6.1327    -7.8696    16.8938 C         1 MOL       0.0000
    372 C124         4.6235   -13.5132    25.0913 C         1 MOL       0.0000
    373 O77         -3.9401    -3.8159    13.1858 O         1 MOL       0.0000
    374 O78         -9.6158     5.5946    15.6247 O         1 MOL       0.0000
    375 O79         -8.3480   -13.0670    24.9060 O         1 MOL       0.0000
    376 O80         -9.9575     5.9636    13.1499 O         1 MOL       0.0000
    377 F19         -7.0015    -7.6450    17.8930 F         1 MOL       0.0000
    378 F20          3.1928   -13.0632    25.7517 F         1 MOL       0.0000
    379 F21          1.9263     5.1130    15.0916 F         1 MOL       0.0000
    380 F22        -12.3194     5.4091    16.9165 F         1 MOL       0.0000
    381 F23          6.0434   -12.6964    23.4964 F         1 MOL       0.0000
    382 F24         -1.0661    -1.4474    24.5482 F         1 MOL       0.0000
    383 S7          -9.0373   -12.1604    25.7843 S         1 MOL       0.0000
    384 S8         -10.3434     6.1677    14.5158 S         1 MOL       0.0000
    385 Ti17        -9.3724    16.8428    11.1894 Ti        1 MOL       0.0000
    386 Ti18         1.4580    19.7240     1.8246 Ti        1 MOL       0.0000
    387 Ti19        -5.2758    12.9066     9.3694 Ti        1 MOL       0.0000
    388 Ti20        -3.7646    22.0687     3.5964 Ti        1 MOL       0.0000
    389 Ti21        -4.7631    23.7470     1.6920 Ti        1 MOL       0.0000
    390 Ti22        -3.3876    12.6522    11.3228 Ti        1 MOL       0.0000
    391 Ti23        -8.4232    15.1069     9.2979 Ti        1 MOL       0.0000
    392 Ti24        -0.5298    20.0265     3.6721 Ti        1 MOL       0.0000
    393 H113        -8.8706    20.7399    10.9699 H         1 MOL       0.0000
    394 H114         2.2668    15.8179     2.1453 H         1 MOL       0.0000
    395 H115       -13.3323    16.0861    10.8070 H         1 MOL       0.0000
    396 H116         4.8402    21.7283     2.0252 H         1 MOL       0.0000
    397 H117        -2.4119     8.6177    10.9369 H         1 MOL       0.0000
    398 H118        -8.8217    23.1571     2.0141 H         1 MOL       0.0000
    399 H119        -8.9037    15.0442    12.9139 H         1 MOL       0.0000
    400 H120        -0.4175    19.4813     0.1247 H         1 MOL       0.0000
    401 H121        -2.8776    11.9851     5.8117 H         1 MOL       0.0000
    402 H122        -5.4880    23.9057     7.2153 H         1 MOL       0.0000
    403 H123       -12.4959    18.4955     8.9420 H         1 MOL       0.0000
    404 H124         4.2128    17.6396     4.1306 H         1 MOL       0.0000
    405 H125       -10.1948    17.0481     5.6082 H         1 MOL       0.0000
    406 H126        -7.8632    25.5749     4.0452 H         1 MOL       0.0000
    407 H127        -4.3709    26.8498     2.5475 H         1 MOL       0.0000
    408 H128         2.1090    13.7991     3.3478 H         1 MOL       0.0000
    409 H129        -1.6719    21.7488     2.2578 H         1 MOL       0.0000
    410 H130        -6.3565    14.7550    10.6630 H         1 MOL       0.0000
    411 H131         0.8472    14.5871     9.7125 H         1 MOL       0.0000
    412 H132        -0.6339    14.1180    10.4598 H         1 MOL       0.0000
    413 H133         1.4213    19.0207     8.6136 H         1 MOL       0.0000
    414 H134         0.8516    19.3793     6.9950 H         1 MOL       0.0000
    415 H135         0.3584     9.6322     9.5224 H         1 MOL       0.0000
    416 H136        -0.9208    10.7328     9.9798 H         1 MOL       0.0000
    417 C125         2.0361    18.9827     4.6881 C         1 MOL       0.0000
    418 C126       -10.3330    17.1042     8.3424 C         1 MOL       0.0000
    419 C127        -2.6952    11.8959     8.4447 C         1 MOL       0.0000
    420 C128        -5.7007    24.0392     4.5557 C         1 MOL       0.0000
    421 C129         2.9321    18.3784     5.6833 C         1 MOL       0.0000
    422 C130       -11.2649    17.7292     7.3653 C         1 MOL       0.0000
    423 C131        -1.7550    11.2815     7.4975 C         1 MOL       0.0000
    424 C132        -6.5905    24.6860     5.5555 C         1 MOL       0.0000
    425 C133         2.6833    18.4533     7.0897 C         1 MOL       0.0000
    426 C134       -11.0485    17.6092     5.9773 C         1 MOL       0.0000
    427 C135        -0.6256    10.5212     7.9506 C         1 MOL       0.0000
    428 C136        -7.6852    25.4590     5.1106 C         1 MOL       0.0000
    429 C137        -6.3360    24.5152     6.9104 C         1 MOL       0.0000
    430 C138        -2.0028    11.4136     6.1136 C         1 MOL       0.0000
    431 C139         4.0658    17.6794     5.2076 C         1 MOL       0.0000
    432 C140       -12.3651    18.4216     7.8640 C         1 MOL       0.0000
    433 C141         2.2478    15.8970     0.0012 C         1 MOL       0.0000
    434 C142        -4.2219    27.6886     0.0262 C         1 MOL       0.0000
    435 C143         0.0973    14.5941    12.9702 C         1 MOL       0.0000
    436 C144       -13.2610    16.1365    12.9508 C         1 MOL       0.0000
    437 C145        -3.0178    19.7255     5.5610 C         1 MOL       0.0000
    438 C146        -7.7739    12.6311     7.4791 C         1 MOL       0.0000
    439 C147        -2.5230    10.2858    13.0730 C         1 MOL       0.0000
    440 C148        -4.3146    26.2551    -0.0113 C         1 MOL       0.0000
    441 C149        -1.2006    13.9773    13.0170 C         1 MOL       0.0000
    442 C150       -11.8587    16.5509    12.9753 C         1 MOL       0.0000
    443 C151         2.2872    15.2279     1.2309 C         1 MOL       0.0000
    444 C152        -8.8596    21.3283    11.8838 C         1 MOL       0.0000
    445 C153       -10.6124    22.4919     1.0191 C         1 MOL       0.0000
    446 C154       -13.8938    15.9068    11.7223 C         1 MOL       0.0000
    447 C155         0.7919    14.8624    11.7368 C         1 MOL       0.0000
    448 C156        -9.3232    22.9721     1.0683 C         1 MOL       0.0000
    449 C157        -2.3703     8.0905    11.8859 C         1 MOL       0.0000
    450 C158         2.3089    13.8268     1.3125 C         1 MOL       0.0000
    451 N21          2.3640    13.2279     2.5506 N         1 MOL       0.0000
    452 N22          0.2129    14.6795    10.4978 N         1 MOL       0.0000
    453 N23          1.6025    19.0996     7.6210 N         1 MOL       0.0000
    454 N24         -0.2946    10.3630     9.2680 N         1 MOL       0.0000
    455 O81          0.8598    19.3878     5.0539 O         1 MOL       0.0000
    456 O82         -9.5640    16.1533     7.9441 O         1 MOL       0.0000
    457 O83         -2.3138    12.0203     9.6658 O         1 MOL       0.0000
    458 O84         -5.7665    24.4689     3.3561 O         1 MOL       0.0000
    459 O85         -4.9302    23.0820     4.9422 O         1 MOL       0.0000
    460 O86         -3.8657    12.2643     8.0392 O         1 MOL       0.0000
    461 O87          2.4480    19.0635     3.4764 O         1 MOL       0.0000
    462 O88        -10.3750    17.5404     9.5421 O         1 MOL       0.0000
    463 O89         -0.2246    18.8086     2.4774 O         1 MOL       0.0000
    464 O90         -7.8708    16.6672    10.0424 O         1 MOL       0.0000
    465 O91          0.7142    21.0959     2.9273 O         1 MOL       0.0000
    466 O92         -9.6230    14.9425    10.5351 O         1 MOL       0.0000
    467 O93         -5.0164    11.7346    10.6298 O         1 MOL       0.0000
    468 O94         -3.2480    23.6300     2.8579 O         1 MOL       0.0000
    469 O95         -4.0625    13.9961    10.1657 O         1 MOL       0.0000
    470 O96         -4.9542    21.8729     2.3405 O         1 MOL       0.0000
    471 O97         -1.7967    19.5457     5.2067 O         1 MOL       0.0000
    472 O98         -8.4316    13.6661     7.8573 O         1 MOL       0.0000
    473 O99         -2.6452    10.8804    11.9319 O         1 MOL       0.0000
    474 O100        -4.3977    25.5536     1.0839 O         1 MOL       0.0000
    475 O101        -1.8431    13.6685    11.9268 O         1 MOL       0.0000
    476 O102        -6.6337    23.7179     1.0238 O         1 MOL       0.0000
    477 O103        -6.6121    12.3366     7.9369 O         1 MOL       0.0000
    478 O104        -3.7597    20.6464     5.0676 O         1 MOL       0.0000
    479 O105         2.8951    20.7431     1.0700 O         1 MOL       0.0000
    480 O106       -11.2592    16.7827    11.8578 O         1 MOL       0.0000
    481 O107         2.0995    17.9888     1.0994 O         1 MOL       0.0000
    482 O108        -8.9910    18.5650    11.9391 O         1 MOL       0.0000
    483 O109        -2.0328    21.2001     2.9784 O         1 MOL       0.0000
    484 O110        -6.7347    14.1963     9.9595 O         1 MOL       0.0000
    485 O111         0.4213    19.9749     0.0456 O         1 MOL       0.0000
    486 O112        -8.7813    16.0110    12.9739 O         1 MOL       0.0000
    487 H137        -2.8063    16.0905     8.4770 H         1 MOL       0.0000
    488 H138       -13.1246    25.2009     6.0976 H         1 MOL       0.0000
    489 H139        -2.0630    24.8084     5.5614 H         1 MOL       0.0000
    490 H140        -1.8132    17.6280     6.7585 H         1 MOL       0.0000
    491 H141        -6.4691    18.3478     8.3732 H         1 MOL       0.0000
    492 H142         5.6108    11.9480     6.9778 H         1 MOL       0.0000
    493 H143        -5.1403    16.4482     9.2374 H         1 MOL       0.0000
    494 H144        -5.4561    19.9101     6.6852 H         1 MOL       0.0000
    495 H145        -0.7233    23.0392     4.4464 H         1 MOL       0.0000
    496 H146         1.7325    22.9382     4.7448 H         1 MOL       0.0000
    497 C159        -3.5852    18.8448     6.6098 C         1 MOL       0.0000
    498 C160        -4.6977    17.1266     8.5098 C         1 MOL       0.0000
    499 C161        -0.2285    23.7664     5.0889 C         1 MOL       0.0000
    500 C162        -8.4388    11.6291     6.6204 C         1 MOL       0.0000
    501 C163        -4.8940    19.0634     7.0734 C         1 MOL       0.0000
    502 C164        -3.3804    16.9257     8.0792 C         1 MOL       0.0000
    503 C165        -0.9845    24.7727     5.7026 C         1 MOL       0.0000
    504 C166       -14.2038    25.2140     5.9672 C         1 MOL       0.0000
    505 C167         1.1589    23.7089     5.2559 C         1 MOL       0.0000
    506 C168         6.1695    11.1337     6.5237 C         1 MOL       0.0000
    507 C169        -2.8255    17.7799     7.1258 C         1 MOL       0.0000
    508 C170        -5.4520    18.1974     8.0146 C         1 MOL       0.0000
    509 N25         -1.3592    25.0856     1.1587 N         1 MOL       0.0000
    510 N26         -4.5019    17.2382    12.8531 N         1 MOL       0.0000
    511 C171        -1.4765    25.7887    -0.0204 C         1 MOL       0.0000
    512 C172        -5.2124    18.2109    12.1887 C         1 MOL       0.0000
    513 C173        -2.1630    17.3149    11.8162 C         1 MOL       0.0000
    514 C174        -1.8165    25.6307     2.4562 C         1 MOL       0.0000
    515 C175        -0.3245    24.2207     1.0192 C         1 MOL       0.0000
    516 C176        -3.3746    16.4887    12.2547 C         1 MOL       0.0000
    517 H147        -6.6778    19.6353    13.0153 H         1 MOL       0.0000
    518 H148        -4.9975    18.5185    11.1790 H         1 MOL       0.0000
    519 H149        -2.4183    18.0803    11.0757 H         1 MOL       0.0000
    520 H150        -2.1071    26.6674     2.3474 H         1 MOL       0.0000
    521 H151        -1.6685    17.8034    12.6622 H         1 MOL       0.0000
    522 H152        -2.6475    25.0633     2.8286 H         1 MOL       0.0000
    523 H153        -1.4541    16.6297    11.3306 H         1 MOL       0.0000
    524 H154        -3.7883    15.9546    11.3917 H         1 MOL       0.0000
    525 H155        -1.0246    25.5103     3.1984 H         1 MOL       0.0000
    526 H156         0.1460    23.6884     1.8311 H         1 MOL       0.0000
    527 H157        -3.0910    15.7423    13.0009 H         1 MOL       0.0000
    528 N27         -4.5397    21.2035    12.9519 N         1 MOL       0.0000
    529 C177        -6.0857    15.1929     1.6090 C         1 MOL       0.0000
    530 C178         2.9118     9.0208    10.5353 C         1 MOL       0.0000
    531 O113         7.1785    14.3552     2.5115 O         1 MOL       0.0000
    532 O114         2.2501    26.1413     1.4012 O         1 MOL       0.0000
    533 O115        -5.1998    20.5542    10.4748 O         1 MOL       0.0000
    534 O116        -2.5040    21.0569     9.0526 O         1 MOL       0.0000
    535 F25         -6.3139    16.5947     2.2273 F         1 MOL       0.0000
    536 F26          3.0138    11.1828    11.8822 F         1 MOL       0.0000
    537 F27         -4.5176    16.0740     0.8776 F         1 MOL       0.0000
    538 F28         -6.8314    14.3765     3.8868 F         1 MOL       0.0000
    539 F29          2.1630    10.0477    10.0542 F         1 MOL       0.0000
    540 F30         -4.2046    22.6522     8.5474 F         1 MOL       0.0000
    541 S9           1.2480    27.8482     1.2460 S         1 MOL       0.0000
    542 S10         -3.9259    21.1998    10.8941 S         1 MOL       0.0000
    543 N28         -3.3160    16.1581     3.2884 N         1 MOL       0.0000
    544 N29         -5.0643    16.9951     4.3576 N         1 MOL       0.0000
    545 C179        -2.3200    15.8054     2.2032 C         1 MOL       0.0000
    546 C180        -4.2783    17.1259     3.2591 C         1 MOL       0.0000
    547 C181        -3.4876    15.4309     4.4603 C         1 MOL       0.0000
    548 C182        -2.4482    14.4105     1.5306 C         1 MOL       0.0000
    549 C183        -4.5859    15.9103     5.1036 C         1 MOL       0.0000
    550 C184        -6.4661    17.4700     4.5575 C         1 MOL       0.0000
    551 H158        -1.3289    15.9106     2.6518 H         1 MOL       0.0000
    552 H159        -2.4360    16.5646     1.4274 H         1 MOL       0.0000
    553 H160        -4.4659    17.7979     2.4323 H         1 MOL       0.0000
    554 H161        -1.5091    14.2379     0.9813 H         1 MOL       0.0000
    555 H162        -2.8205    14.6192     4.7339 H         1 MOL       0.0000
    556 H163        -6.5683    17.9388     5.5399 H         1 MOL       0.0000
    557 H164        -6.7819    18.1549     3.7603 H         1 MOL       0.0000
    558 H165        -2.5871    13.5725     2.2233 H         1 MOL       0.0000
    559 H166        -5.0853    15.6227     6.0099 H         1 MOL       0.0000
    560 H167        -3.2620    14.3923     0.7928 H         1 MOL       0.0000
    561 H168        -7.1293    16.6056     4.4993 H         1 MOL       0.0000
    562 N30         -7.0394    15.1623     0.7258 N         1 MOL       0.0000
    563 C185        -8.0147    13.8094     3.7418 C         1 MOL       0.0000
    564 C186         2.7415     8.1658    11.9393 C         1 MOL       0.0000
    565 O117        -5.8221    17.8631     0.0338 O         1 MOL       0.0000
    566 O118       -11.4978    27.2736     2.4727 O         1 MOL       0.0000
    567 O119       -10.2300     8.6120    11.7540 O         1 MOL       0.0000
    568 O120       -11.8395    27.6426    -0.0021 O         1 MOL       0.0000
    569 F31         -8.8835    14.0340     4.7410 F         1 MOL       0.0000
    570 F32          1.3108     8.6158    12.5997 F         1 MOL       0.0000
    571 F33          0.0443    26.7920     1.9396 F         1 MOL       0.0000
    572 F34        -14.2014    27.0881     3.7645 F         1 MOL       0.0000
    573 F35          4.1614     8.9826    10.3444 F         1 MOL       0.0000
    574 F36         -2.9481    20.2316    11.3962 F         1 MOL       0.0000
    575 S11        -10.9193     9.5186    12.6323 S         1 MOL       0.0000
    576 S12        -12.2254    27.8467     1.3638 S         1 MOL       0.0000
    577 Ti25       -14.0074     9.7768    24.2844 Ti        1 MOL       0.0000
    578 Ti26        -3.1770    12.6580    14.9196 Ti        1 MOL       0.0000
    579 Ti27        -9.9108     5.8406    22.4644 Ti        1 MOL       0.0000
    580 Ti28        -8.3996    15.0027    16.6914 Ti        1 MOL       0.0000
    581 Ti29        -9.3981    16.6810    14.7870 Ti        1 MOL       0.0000
    582 Ti30        -8.0226     5.5862    24.4178 Ti        1 MOL       0.0000
    583 Ti31       -13.0582     8.0409    22.3929 Ti        1 MOL       0.0000
    584 Ti32        -5.1648    12.9605    16.7671 Ti        1 MOL       0.0000
    585 H169       -13.5056    13.6739    24.0649 H         1 MOL       0.0000
    586 H170        -2.3682     8.7519    15.2403 H         1 MOL       0.0000
    587 H171       -17.9673     9.0201    23.9020 H         1 MOL       0.0000
    588 H172         0.2052    14.6623    15.1202 H         1 MOL       0.0000
    589 H173        -7.0469     1.5517    24.0319 H         1 MOL       0.0000
    590 H174       -13.4567    16.0911    15.1091 H         1 MOL       0.0000
    591 H175       -13.5387     7.9782    26.0089 H         1 MOL       0.0000
    592 H176        -5.0525    12.4153    13.2196 H         1 MOL       0.0000
    593 H177        -7.5126     4.9191    18.9067 H         1 MOL       0.0000
    594 H178       -10.1230    16.8397    20.3103 H         1 MOL       0.0000
    595 H179       -17.1309    11.4295    22.0370 H         1 MOL       0.0000
    596 H180        -0.4222    10.5736    17.2256 H         1 MOL       0.0000
    597 H181       -14.8298     9.9821    18.7032 H         1 MOL       0.0000
    598 H182       -12.4982    18.5089    17.1402 H         1 MOL       0.0000
    599 H183        -9.0059    19.7838    15.6425 H         1 MOL       0.0000
    600 H184        -2.5260     6.7331    16.4428 H         1 MOL       0.0000
    601 H185        -6.3069    14.6828    15.3528 H         1 MOL       0.0000
    602 H186       -10.9915     7.6890    23.7580 H         1 MOL       0.0000
    603 H187        -3.7878     7.5211    22.8075 H         1 MOL       0.0000
    604 H188        -5.2689     7.0520    23.5548 H         1 MOL       0.0000
    605 H189        -3.2137    11.9547    21.7085 H         1 MOL       0.0000
    606 H190        -3.7834    12.3133    20.0900 H         1 MOL       0.0000
    607 H191        -4.2766     2.5662    22.6174 H         1 MOL       0.0000
    608 H192        -5.5558     3.6668    23.0748 H         1 MOL       0.0000
    609 C187        -2.5989    11.9167    17.7831 C         1 MOL       0.0000
    610 C188       -14.9680    10.0381    21.4374 C         1 MOL       0.0000
    611 C189        -7.3302     4.8299    21.5397 C         1 MOL       0.0000
    612 C190       -10.3357    16.9732    17.6507 C         1 MOL       0.0000
    613 C191        -1.7029    11.3124    18.7783 C         1 MOL       0.0000
    614 C192       -15.8999    10.6632    20.4603 C         1 MOL       0.0000
    615 C193        -6.3900     4.2155    20.5925 C         1 MOL       0.0000
    616 C194       -11.2255    17.6200    18.6505 C         1 MOL       0.0000
    617 C195        -1.9517    11.3873    20.1847 C         1 MOL       0.0000
    618 C196       -15.6835    10.5432    19.0723 C         1 MOL       0.0000
    619 C197        -5.2606     3.4552    21.0456 C         1 MOL       0.0000
    620 C198       -12.3202    18.3930    18.2056 C         1 MOL       0.0000
    621 C199       -10.9710    17.4492    20.0054 C         1 MOL       0.0000
    622 C200        -6.6378     4.3476    19.2086 C         1 MOL       0.0000
    623 C201        -0.5692    10.6134    18.3026 C         1 MOL       0.0000
    624 C202       -17.0001    11.3556    20.9590 C         1 MOL       0.0000
    625 C203        -2.3872     8.8310    13.0962 C         1 MOL       0.0000
    626 C204        -8.8569    20.6226    13.1212 C         1 MOL       0.0000
    627 C205        -4.5377     7.5281    26.0652 C         1 MOL       0.0000
    628 C206       -17.8960     9.0705    26.0458 C         1 MOL       0.0000
    629 C207        -7.6528    12.6595    18.6560 C         1 MOL       0.0000
    630 C208       -12.4089     5.5651    20.5741 C         1 MOL       0.0000
    631 C209        -7.1580     3.2199    26.1680 C         1 MOL       0.0000
    632 C210        -8.9496    19.1891    13.0837 C         1 MOL       0.0000
    633 C211        -5.8355     6.9113    26.1120 C         1 MOL       0.0000
    634 C212       -16.4937     9.4849    26.0703 C         1 MOL       0.0000
    635 C213        -2.3478     8.1619    14.3259 C         1 MOL       0.0000
    636 C214       -13.4946    14.2623    24.9788 C         1 MOL       0.0000
    637 C215       -15.2474    15.4259    14.1141 C         1 MOL       0.0000
    638 C216       -18.5288     8.8408    24.8173 C         1 MOL       0.0000
    639 C217        -3.8431     7.7964    24.8318 C         1 MOL       0.0000
    640 C218       -13.9582    15.9061    14.1633 C         1 MOL       0.0000
    641 C219        -7.0053     1.0245    24.9809 C         1 MOL       0.0000
    642 C220        -2.3261     6.7608    14.4075 C         1 MOL       0.0000
    643 N31         -2.2710     6.1619    15.6456 N         1 MOL       0.0000
    644 N32         -4.4221     7.6135    23.5928 N         1 MOL       0.0000
    645 N33         -3.0325    12.0336    20.7160 N         1 MOL       0.0000
    646 N34         -4.9296     3.2970    22.3630 N         1 MOL       0.0000
    647 O121        -3.7752    12.3218    18.1489 O         1 MOL       0.0000
    648 O122       -14.1990     9.0873    21.0391 O         1 MOL       0.0000
    649 O123        -6.9488     4.9543    22.7608 O         1 MOL       0.0000
    650 O124       -10.4015    17.4029    16.4512 O         1 MOL       0.0000
    651 O125        -9.5652    16.0160    18.0372 O         1 MOL       0.0000
    652 O126        -8.5007     5.1983    21.1342 O         1 MOL       0.0000
    653 O127        -2.1870    11.9975    16.5714 O         1 MOL       0.0000
    654 O128       -15.0100    10.4744    22.6371 O         1 MOL       0.0000
    655 O129        -4.8596    11.7426    15.5724 O         1 MOL       0.0000
    656 O130       -12.5058     9.6012    23.1374 O         1 MOL       0.0000
    657 O131        -3.9208    14.0299    16.0223 O         1 MOL       0.0000
    658 O132       -14.2580     7.8765    23.6301 O         1 MOL       0.0000
    659 O133        -9.6515     4.6686    23.7248 O         1 MOL       0.0000
    660 O134        -7.8830    16.5640    15.9529 O         1 MOL       0.0000
    661 O135        -8.6975     6.9301    23.2607 O         1 MOL       0.0000
    662 O136        -9.5892    14.8069    15.4355 O         1 MOL       0.0000
    663 O137        -6.4317    12.4797    18.3017 O         1 MOL       0.0000
    664 O138       -13.0666     6.6001    20.9523 O         1 MOL       0.0000
    665 O139        -7.2802     3.8144    25.0269 O         1 MOL       0.0000
    666 O140        -9.0327    18.4876    14.1789 O         1 MOL       0.0000
    667 O141        -6.4781     6.6025    25.0218 O         1 MOL       0.0000
    668 O142       -11.2687    16.6519    14.1188 O         1 MOL       0.0000
    669 O143       -11.2471     5.2706    21.0319 O         1 MOL       0.0000
    670 O144        -8.3947    13.5804    18.1626 O         1 MOL       0.0000
    671 O145        -1.7399    13.6771    14.1650 O         1 MOL       0.0000
    672 O146       -15.8942     9.7167    24.9528 O         1 MOL       0.0000
    673 O147        -2.5355    10.9228    14.1944 O         1 MOL       0.0000
    674 O148       -13.6260    11.4990    25.0341 O         1 MOL       0.0000
    675 O149        -6.6678    14.1341    16.0734 O         1 MOL       0.0000
    676 O150       -11.3697     7.1303    23.0545 O         1 MOL       0.0000
    677 O151        -4.2137    12.9089    13.1406 O         1 MOL       0.0000
    678 O152       -13.4163     8.9450    26.0689 O         1 MOL       0.0000
    679 H193        -7.4413     9.0245    21.5720 H         1 MOL       0.0000
    680 H194       -17.7596    18.1349    19.1926 H         1 MOL       0.0000
    681 H195        -6.6980    17.7424    18.6564 H         1 MOL       0.0000
    682 H196        -6.4482    10.5620    19.8535 H         1 MOL       0.0000
    683 H197       -11.1041    11.2818    21.4682 H         1 MOL       0.0000
    684 H198         0.9758     4.8820    20.0728 H         1 MOL       0.0000
    685 H199        -9.7753     9.3822    22.3324 H         1 MOL       0.0000
    686 H200       -10.0911    12.8441    19.7802 H         1 MOL       0.0000
    687 H201        -5.3583    15.9732    17.5414 H         1 MOL       0.0000
    688 H202        -2.9025    15.8722    17.8398 H         1 MOL       0.0000
    689 C221        -8.2202    11.7788    19.7048 C         1 MOL       0.0000
    690 C222        -9.3327    10.0606    21.6048 C         1 MOL       0.0000
    691 C223        -4.8635    16.7004    18.1839 C         1 MOL       0.0000
    692 C224       -13.0738     4.5631    19.7154 C         1 MOL       0.0000
    693 C225        -9.5290    11.9974    20.1684 C         1 MOL       0.0000
    694 C226        -8.0154     9.8597    21.1742 C         1 MOL       0.0000
    695 C227        -5.6195    17.7067    18.7976 C         1 MOL       0.0000
    696 C228       -18.8388    18.1480    19.0622 C         1 MOL       0.0000
    697 C229        -3.4761    16.6429    18.3509 C         1 MOL       0.0000
    698 C230         1.5345     4.0677    19.6187 C         1 MOL       0.0000
    699 C231        -7.4605    10.7139    20.2208 C         1 MOL       0.0000
    700 C232       -10.0870    11.1314    21.1096 C         1 MOL       0.0000
    701 N35         -5.9942    18.0196    14.2537 N         1 MOL       0.0000
    702 N36         -9.1369    10.1722    25.9481 N         1 MOL       0.0000
    703 C233        -6.1115    18.7227    13.0746 C         1 MOL       0.0000
    704 C234        -9.8474    11.1449    25.2837 C         1 MOL       0.0000
    705 C235        -6.7980    10.2489    24.9112 C         1 MOL       0.0000
    706 C236        -6.4515    18.5647    15.5512 C         1 MOL       0.0000
    707 C237        -4.9595    17.1547    14.1142 C         1 MOL       0.0000
    708 C238        -8.0096     9.4227    25.3497 C         1 MOL       0.0000
    709 H203       -11.3128    12.5693    26.1103 H         1 MOL       0.0000
    710 H204        -9.6325    11.4525    24.2740 H         1 MOL       0.0000
    711 H205        -7.0533    11.0143    24.1707 H         1 MOL       0.0000
    712 H206        -6.7421    19.6014    15.4424 H         1 MOL       0.0000
    713 H207        -6.3035    10.7374    25.7572 H         1 MOL       0.0000
    714 H208        -7.2825    17.9973    15.9236 H         1 MOL       0.0000
    715 H209        -6.0891     9.5637    24.4256 H         1 MOL       0.0000
    716 H210        -8.4233     8.8886    24.4867 H         1 MOL       0.0000
    717 H211        -5.6596    18.4443    16.2934 H         1 MOL       0.0000
    718 H212        -4.4890    16.6224    14.9261 H         1 MOL       0.0000
    719 H213        -7.7260     8.6763    26.0959 H         1 MOL       0.0000
    720 N37         -9.1747    14.1375    26.0469 N         1 MOL       0.0000
    721 C239       -10.7207     8.1269    14.7040 C         1 MOL       0.0000
    722 C240        -1.7232     1.9548    23.6303 C         1 MOL       0.0000
    723 O153         2.5435     7.2892    15.6065 O         1 MOL       0.0000
    724 O154        -2.3849    19.0753    14.4962 O         1 MOL       0.0000
    725 O155        -9.8348    13.4882    23.5698 O         1 MOL       0.0000
    726 O156        -7.1390    13.9909    22.1476 O         1 MOL       0.0000
    727 F37        -10.9489     9.5287    15.3223 F         1 MOL       0.0000
    728 F38         -1.6212     4.1168    24.9772 F         1 MOL       0.0000
    729 F39         -9.1526     9.0080    13.9726 F         1 MOL       0.0000
    730 F40        -11.4664     7.3105    16.9818 F         1 MOL       0.0000
    731 F41         -2.4720     2.9817    23.1492 F         1 MOL       0.0000
    732 F42         -8.8396    15.5862    21.6424 F         1 MOL       0.0000
    733 S13         -3.3870    20.7822    14.3410 S         1 MOL       0.0000
    734 S14         -8.5609    14.1338    23.9891 S         1 MOL       0.0000
    735 N38         -7.9510     9.0921    16.3834 N         1 MOL       0.0000
    736 N39         -9.6993     9.9291    17.4526 N         1 MOL       0.0000
    737 C241        -6.9550     8.7394    15.2982 C         1 MOL       0.0000
    738 C242        -8.9133    10.0599    16.3541 C         1 MOL       0.0000
    739 C243        -8.1226     8.3649    17.5553 C         1 MOL       0.0000
    740 C244        -7.0832     7.3445    14.6256 C         1 MOL       0.0000
    741 C245        -9.2209     8.8443    18.1986 C         1 MOL       0.0000
    742 C246       -11.1011    10.4040    17.6525 C         1 MOL       0.0000
    743 H214        -5.9639     8.8446    15.7468 H         1 MOL       0.0000
    744 H215        -7.0710     9.4986    14.5224 H         1 MOL       0.0000
    745 H216        -9.1009    10.7319    15.5273 H         1 MOL       0.0000
    746 H217        -6.1441     7.1719    14.0763 H         1 MOL       0.0000
    747 H218        -7.4555     7.5532    17.8289 H         1 MOL       0.0000
    748 H219       -11.2033    10.8728    18.6349 H         1 MOL       0.0000
    749 H220       -11.4169    11.0889    16.8553 H         1 MOL       0.0000
    750 H221        -7.2221     6.5065    15.3183 H         1 MOL       0.0000
    751 H222        -9.7203     8.5567    19.1049 H         1 MOL       0.0000
    752 H223        -7.8970     7.3263    13.8878 H         1 MOL       0.0000
    753 H224       -11.7643     9.5396    17.5943 H         1 MOL       0.0000
    754 N40        -11.6744     8.0963    13.8208 N         1 MOL       0.0000
    755 C247       -12.6497     6.7434    16.8368 C         1 MOL       0.0000
    756 C248        -1.8935     1.0998    25.0343 C         1 MOL       0.0000
    757 O157       -10.4571    10.7971    13.1288 O         1 MOL       0.0000
    758 O158       -16.1328    20.2076    15.5677 O         1 MOL       0.0000
    759 O159       -14.8650     1.5460    24.8490 O         1 MOL       0.0000
    760 O160       -16.4745    20.5766    13.0929 O         1 MOL       0.0000
    761 F43        -13.5185     6.9680    17.8360 F         1 MOL       0.0000
    762 F44         -3.3242     1.5498    25.6947 F         1 MOL       0.0000
    763 F45         -4.5907    19.7260    15.0346 F         1 MOL       0.0000
    764 F46        -18.8364    20.0221    16.8595 F         1 MOL       0.0000
    765 F47         -0.4736     1.9166    23.4394 F         1 MOL       0.0000
    766 F48         -7.5831    13.1656    24.4912 F         1 MOL       0.0000
    767 S15        -15.5543     2.4526    25.7273 S         1 MOL       0.0000
    768 S16        -16.8604    20.7807    14.4588 S         1 MOL       0.0000
    769 Ti33        13.1446     1.6728    11.3364 Ti        1 MOL       0.0000
    770 Ti34        23.9750     4.5540     1.9716 Ti        1 MOL       0.0000
    771 Ti35        17.2413    -2.2634     9.5164 Ti        1 MOL       0.0000
    772 Ti36        18.7524     6.8987     3.7434 Ti        1 MOL       0.0000
    773 Ti37        17.7539     8.5770     1.8390 Ti        1 MOL       0.0000
    774 Ti38        19.1295    -2.5178    11.4698 Ti        1 MOL       0.0000
    775 Ti39        14.0938    -0.0631     9.4449 Ti        1 MOL       0.0000
    776 Ti40        21.9872     4.8565     3.8191 Ti        1 MOL       0.0000
    777 H225        13.6464     5.5698    11.1169 H         1 MOL       0.0000
    778 H226        24.7838     0.6479     2.2923 H         1 MOL       0.0000
    779 H227         9.1847     0.9161    10.9540 H         1 MOL       0.0000
    780 H228        27.3572     6.5583     2.1722 H         1 MOL       0.0000
    781 H229        20.1051    -6.5523    11.0839 H         1 MOL       0.0000
    782 H230        13.6953     7.9871     2.1610 H         1 MOL       0.0000
    783 H231        13.6133    -0.1258    13.0609 H         1 MOL       0.0000
    784 H232        22.0995     4.3113     0.2717 H         1 MOL       0.0000
    785 H233        19.6394    -3.1849     5.9587 H         1 MOL       0.0000
    786 H234        17.0290     8.7357     7.3624 H         1 MOL       0.0000
    787 H235        10.0211     3.3255     9.0890 H         1 MOL       0.0000
    788 H236        26.7298     2.4697     4.2776 H         1 MOL       0.0000
    789 H237        12.3222     1.8781     5.7552 H         1 MOL       0.0000
    790 H238        14.6538    10.4049     4.1922 H         1 MOL       0.0000
    791 H239        18.1461    11.6798     2.6945 H         1 MOL       0.0000
    792 H240        24.6260    -1.3709     3.4948 H         1 MOL       0.0000
    793 H241        20.8451     6.5788     2.4048 H         1 MOL       0.0000
    794 H242        16.1605    -0.4150    10.8100 H         1 MOL       0.0000
    795 H243        23.3642    -0.5829     9.8595 H         1 MOL       0.0000
    796 H244        21.8831    -1.0520    10.6068 H         1 MOL       0.0000
    797 H245        23.9383     3.8507     8.7606 H         1 MOL       0.0000
    798 H246        23.3686     4.2093     7.1420 H         1 MOL       0.0000
    799 H247        22.8754    -5.5378     9.6694 H         1 MOL       0.0000
    800 H248        21.5962    -4.4372    10.1268 H         1 MOL       0.0000
    801 C249        24.5531     3.8127     4.8351 C         1 MOL       0.0000
    802 C250        12.1840     1.9341     8.4894 C         1 MOL       0.0000
    803 C251        19.8218    -3.2741     8.5917 C         1 MOL       0.0000
    804 C252        16.8163     8.8692     4.7027 C         1 MOL       0.0000
    805 C253        25.4491     3.2084     5.8303 C         1 MOL       0.0000
    806 C254        11.2521     2.5592     7.5123 C         1 MOL       0.0000
    807 C255        20.7620    -3.8885     7.6445 C         1 MOL       0.0000
    808 C256        15.9265     9.5160     5.7025 C         1 MOL       0.0000
    809 C257        25.2003     3.2833     7.2367 C         1 MOL       0.0000
    810 C258        11.4685     2.4392     6.1243 C         1 MOL       0.0000
    811 C259        21.8914    -4.6488     8.0976 C         1 MOL       0.0000
    812 C260        14.8318    10.2890     5.2576 C         1 MOL       0.0000
    813 C261        16.1810     9.3453     7.0574 C         1 MOL       0.0000
    814 C262        20.5142    -3.7563     6.2606 C         1 MOL       0.0000
    815 C263        26.5828     2.5094     5.3546 C         1 MOL       0.0000
    816 C264        10.1519     3.2516     8.0110 C         1 MOL       0.0000
    817 C265        24.7648     0.7270     0.1482 C         1 MOL       0.0000
    818 C266        18.2951    12.5186     0.1732 C         1 MOL       0.0000
    819 C267        22.6143    -0.5759    13.1172 C         1 MOL       0.0000
    820 C268         9.2560     0.9665    13.0978 C         1 MOL       0.0000
    821 C269        19.4992     4.5555     5.7080 C         1 MOL       0.0000
    822 C270        14.7431    -2.5389     7.6261 C         1 MOL       0.0000
    823 C271        19.9940    -4.8842    13.2200 C         1 MOL       0.0000
    824 C272        18.2024    11.0851     0.1357 C         1 MOL       0.0000
    825 C273        21.3164    -1.1927    13.1640 C         1 MOL       0.0000
    826 C274        10.6583     1.3809    13.1223 C         1 MOL       0.0000
    827 C275        24.8042     0.0579     1.3779 C         1 MOL       0.0000
    828 C276        13.6574     6.1583    12.0308 C         1 MOL       0.0000
    829 C277        11.9046     7.3219     1.1661 C         1 MOL       0.0000
    830 C278         8.6232     0.7368    11.8693 C         1 MOL       0.0000
    831 C279        23.3089    -0.3076    11.8838 C         1 MOL       0.0000
    832 C280        13.1938     7.8021     1.2153 C         1 MOL       0.0000
    833 C281        20.1467    -7.0795    12.0329 C         1 MOL       0.0000
    834 C282        24.8259    -1.3432     1.4595 C         1 MOL       0.0000
    835 N41         24.8809    -1.9421     2.6976 N         1 MOL       0.0000
    836 N42         22.7299    -0.4905    10.6448 N         1 MOL       0.0000
    837 N43         24.1195     3.9296     7.7680 N         1 MOL       0.0000
    838 N44         22.2224    -4.8070     9.4150 N         1 MOL       0.0000
    839 O161        23.3768     4.2178     5.2009 O         1 MOL       0.0000
    840 O162        12.9530     0.9833     8.0911 O         1 MOL       0.0000
    841 O163        20.2032    -3.1497     9.8128 O         1 MOL       0.0000
    842 O164        16.7505     9.2989     3.5031 O         1 MOL       0.0000
    843 O165        17.5868     7.9120     5.0892 O         1 MOL       0.0000
    844 O166        18.6513    -2.9057     8.1862 O         1 MOL       0.0000
    845 O167        24.9650     3.8935     3.6234 O         1 MOL       0.0000
    846 O168        12.1420     2.3704     9.6891 O         1 MOL       0.0000
    847 O169        22.2924     3.6386     2.6244 O         1 MOL       0.0000
    848 O170        14.6462     1.4972    10.1894 O         1 MOL       0.0000
    849 O171        23.2312     5.9259     3.0743 O         1 MOL       0.0000
    850 O172        12.8940    -0.2275    10.6821 O         1 MOL       0.0000
    851 O173        17.5006    -3.4354    10.7768 O         1 MOL       0.0000
    852 O174        19.2690     8.4600     3.0049 O         1 MOL       0.0000
    853 O175        18.4545    -1.1739    10.3127 O         1 MOL       0.0000
    854 O176        17.5628     6.7029     2.4875 O         1 MOL       0.0000
    855 O177        20.7203     4.3756     5.3537 O         1 MOL       0.0000
    856 O178        14.0854    -1.5039     8.0043 O         1 MOL       0.0000
    857 O179        19.8718    -4.2896    12.0789 O         1 MOL       0.0000
    858 O180        18.1193    10.3836     1.2309 O         1 MOL       0.0000
    859 O181        20.6739    -1.5015    12.0738 O         1 MOL       0.0000
    860 O182        15.8833     8.5479     1.1708 O         1 MOL       0.0000
    861 O183        15.9049    -2.8334     8.0839 O         1 MOL       0.0000
    862 O184        18.7573     5.4764     5.2146 O         1 MOL       0.0000
    863 O185        25.4121     5.5731     1.2170 O         1 MOL       0.0000
    864 O186        11.2578     1.6127    12.0048 O         1 MOL       0.0000
    865 O187        24.6166     2.8188     1.2464 O         1 MOL       0.0000
    866 O188        13.5260     3.3950    12.0861 O         1 MOL       0.0000
    867 O189        20.4842     6.0301     3.1254 O         1 MOL       0.0000
    868 O190        15.7823    -0.9737    10.1065 O         1 MOL       0.0000
    869 O191        22.9383     4.8049     0.1926 O         1 MOL       0.0000
    870 O192        13.7357     0.8410    13.1209 O         1 MOL       0.0000
    871 H249        19.7107     0.9205     8.6240 H         1 MOL       0.0000
    872 H250         9.3924    10.0309     6.2446 H         1 MOL       0.0000
    873 H251        20.4540     9.6384     5.7084 H         1 MOL       0.0000
    874 H252        20.7038     2.4580     6.9055 H         1 MOL       0.0000
    875 H253        16.0479     3.1778     8.5202 H         1 MOL       0.0000
    876 H254        28.1278    -3.2220     7.1248 H         1 MOL       0.0000
    877 H255        17.3767     1.2782     9.3844 H         1 MOL       0.0000
    878 H256        17.0609     4.7401     6.8322 H         1 MOL       0.0000
    879 H257        21.7937     7.8692     4.5934 H         1 MOL       0.0000
    880 H258        24.2495     7.7682     4.8918 H         1 MOL       0.0000
    881 C283        18.9318     3.6748     6.7568 C         1 MOL       0.0000
    882 C284        17.8193     1.9566     8.6568 C         1 MOL       0.0000
    883 C285        22.2885     8.5964     5.2359 C         1 MOL       0.0000
    884 C286        14.0782    -3.5409     6.7674 C         1 MOL       0.0000
    885 C287        17.6230     3.8934     7.2204 C         1 MOL       0.0000
    886 C288        19.1366     1.7557     8.2262 C         1 MOL       0.0000
    887 C289        21.5325     9.6027     5.8496 C         1 MOL       0.0000
    888 C290         8.3132    10.0440     6.1142 C         1 MOL       0.0000
    889 C291        23.6759     8.5389     5.4029 C         1 MOL       0.0000
    890 C292        28.6865    -4.0363     6.6707 C         1 MOL       0.0000
    891 C293        19.6915     2.6099     7.2728 C         1 MOL       0.0000
    892 C294        17.0650     3.0274     8.1616 C         1 MOL       0.0000
    893 N45         21.1578     9.9156     1.3057 N         1 MOL       0.0000
    894 N46         18.0151     2.0682    13.0001 N         1 MOL       0.0000
    895 C295        21.0405    10.6187     0.1266 C         1 MOL       0.0000
    896 C296        17.3046     3.0409    12.3357 C         1 MOL       0.0000
    897 C297        20.3540     2.1449    11.9632 C         1 MOL       0.0000
    898 C298        20.7005    10.4607     2.6032 C         1 MOL       0.0000
    899 C299        22.1925     9.0507     1.1662 C         1 MOL       0.0000
    900 C300        19.1424     1.3187    12.4017 C         1 MOL       0.0000
    901 H259        15.8392     4.4653    13.1623 H         1 MOL       0.0000
    902 H260        17.5195     3.3485    11.3260 H         1 MOL       0.0000
    903 H261        20.0987     2.9103    11.2227 H         1 MOL       0.0000
    904 H262        20.4099    11.4974     2.4944 H         1 MOL       0.0000
    905 H263        20.8485     2.6334    12.8092 H         1 MOL       0.0000
    906 H264        19.8695     9.8933     2.9756 H         1 MOL       0.0000
    907 H265        21.0629     1.4597    11.4776 H         1 MOL       0.0000
    908 H266        18.7287     0.7846    11.5387 H         1 MOL       0.0000
    909 H267        21.4924    10.3403     3.3454 H         1 MOL       0.0000
    910 H268        22.6630     8.5184     1.9781 H         1 MOL       0.0000
    911 H269        19.4260     0.5723    13.1479 H         1 MOL       0.0000
    912 N47         17.9773     6.0335    13.0989 N         1 MOL       0.0000
    913 C301        16.4313     0.0229     1.7560 C         1 MOL       0.0000
    914 C302        25.4288    -6.1492    10.6823 C         1 MOL       0.0000
    915 O193        29.6955    -0.8148     2.6585 O         1 MOL       0.0000
    916 O194        24.7671    10.9713     1.5482 O         1 MOL       0.0000
    917 O195        17.3172     5.3842    10.6218 O         1 MOL       0.0000
    918 O196        20.0130     5.8869     9.1996 O         1 MOL       0.0000
    919 F49         16.2031     1.4247     2.3743 F         1 MOL       0.0000
    920 F50         25.5308    -3.9872    12.0292 F         1 MOL       0.0000
    921 F51         17.9994     0.9040     1.0246 F         1 MOL       0.0000
    922 F52         15.6856    -0.7935     4.0338 F         1 MOL       0.0000
    923 F53         24.6800    -5.1223    10.2012 F         1 MOL       0.0000
    924 F54         18.3124     7.4822     8.6944 F         1 MOL       0.0000
    925 S17         23.7650    12.6782     1.3930 S         1 MOL       0.0000
    926 S18         18.5911     6.0298    11.0411 S         1 MOL       0.0000
    927 N48         19.2010     0.9881     3.4354 N         1 MOL       0.0000
    928 N49         17.4527     1.8251     4.5046 N         1 MOL       0.0000
    929 C303        20.1970     0.6354     2.3502 C         1 MOL       0.0000
    930 C304        18.2387     1.9559     3.4061 C         1 MOL       0.0000
    931 C305        19.0294     0.2609     4.6073 C         1 MOL       0.0000
    932 C306        20.0688    -0.7595     1.6776 C         1 MOL       0.0000
    933 C307        17.9311     0.7403     5.2506 C         1 MOL       0.0000
    934 C308        16.0509     2.3000     4.7045 C         1 MOL       0.0000
    935 H270        21.1881     0.7406     2.7988 H         1 MOL       0.0000
    936 H271        20.0810     1.3946     1.5744 H         1 MOL       0.0000
    937 H272        18.0511     2.6279     2.5793 H         1 MOL       0.0000
    938 H273        21.0079    -0.9321     1.1283 H         1 MOL       0.0000
    939 H274        19.6965    -0.5508     4.8809 H         1 MOL       0.0000
    940 H275        15.9487     2.7688     5.6869 H         1 MOL       0.0000
    941 H276        15.7351     2.9849     3.9073 H         1 MOL       0.0000
    942 H277        19.9299    -1.5975     2.3703 H         1 MOL       0.0000
    943 H278        17.4317     0.4527     6.1569 H         1 MOL       0.0000
    944 H279        19.2550    -0.7777     0.9398 H         1 MOL       0.0000
    945 H280        15.3877     1.4356     4.6463 H         1 MOL       0.0000
    946 N50         15.4776    -0.0077     0.8728 N         1 MOL       0.0000
    947 C309        14.5023    -1.3606     3.8888 C         1 MOL       0.0000
    948 C310        25.2585    -7.0042    12.0863 C         1 MOL       0.0000
    949 O197        16.6949     2.6931     0.1808 O         1 MOL       0.0000
    950 O198        11.0192    12.1036     2.6197 O         1 MOL       0.0000
    951 O199        12.2870    -6.5580    11.9010 O         1 MOL       0.0000
    952 O200        10.6775    12.4726     0.1449 O         1 MOL       0.0000
    953 F55         13.6335    -1.1360     4.8880 F         1 MOL       0.0000
    954 F56         23.8278    -6.5542    12.7467 F         1 MOL       0.0000
    955 F57         22.5613    11.6220     2.0866 F         1 MOL       0.0000
    956 F58          8.3156    11.9181     3.9115 F         1 MOL       0.0000
    957 F59         26.6784    -6.1874    10.4914 F         1 MOL       0.0000
    958 F60         19.5689     5.0616    11.5432 F         1 MOL       0.0000
    959 S19         11.5977    -5.6514    12.7793 S         1 MOL       0.0000
    960 S20         10.2916    12.6767     1.5108 S         1 MOL       0.0000
    961 Ti41         8.5096    -5.3932    24.4314 Ti        1 MOL       0.0000
    962 Ti42        19.3400    -2.5120    15.0666 Ti        1 MOL       0.0000
    963 Ti43        12.6063    -9.3294    22.6114 Ti        1 MOL       0.0000
    964 Ti44        14.1174    -0.1673    16.8384 Ti        1 MOL       0.0000
    965 Ti45        13.1189     1.5110    14.9340 Ti        1 MOL       0.0000
    966 Ti46        14.4945    -9.5838    24.5648 Ti        1 MOL       0.0000
    967 Ti47         9.4588    -7.1291    22.5399 Ti        1 MOL       0.0000
    968 Ti48        17.3522    -2.2095    16.9140 Ti        1 MOL       0.0000
    969 H281         9.0114    -1.4961    24.2119 H         1 MOL       0.0000
    970 H282        20.1488    -6.4181    15.3873 H         1 MOL       0.0000
    971 H283         4.5497    -6.1499    24.0490 H         1 MOL       0.0000
    972 H284        22.7222    -0.5077    15.2672 H         1 MOL       0.0000
    973 H285        15.4701   -13.6183    24.1789 H         1 MOL       0.0000
    974 H286         9.0603     0.9211    15.2561 H         1 MOL       0.0000
    975 H287         8.9783    -7.1918    26.1559 H         1 MOL       0.0000
    976 H288        17.4645    -2.7547    13.3666 H         1 MOL       0.0000
    977 H289        15.0044   -10.2509    19.0537 H         1 MOL       0.0000
    978 H290        12.3940     1.6697    20.4573 H         1 MOL       0.0000
    979 H291         5.3861    -3.7405    22.1840 H         1 MOL       0.0000
    980 H292        22.0948    -4.5963    17.3726 H         1 MOL       0.0000
    981 H293         7.6872    -5.1879    18.8502 H         1 MOL       0.0000
    982 H294        10.0188     3.3389    17.2872 H         1 MOL       0.0000
    983 H295        13.5111     4.6138    15.7895 H         1 MOL       0.0000
    984 H296        19.9910    -8.4369    16.5898 H         1 MOL       0.0000
    985 H297        16.2101    -0.4872    15.4998 H         1 MOL       0.0000
    986 H298        11.5255    -7.4810    23.9050 H         1 MOL       0.0000
    987 H299        18.7292    -7.6489    22.9545 H         1 MOL       0.0000
    988 H300        17.2481    -8.1180    23.7018 H         1 MOL       0.0000
    989 H301        19.3033    -3.2153    21.8555 H         1 MOL       0.0000
    990 H302        18.7336    -2.8567    20.2370 H         1 MOL       0.0000
    991 H303        18.2404   -12.6038    22.7644 H         1 MOL       0.0000
    992 H304        16.9612   -11.5032    23.2218 H         1 MOL       0.0000
    993 C311        19.9181    -3.2533    17.9301 C         1 MOL       0.0000
    994 C312         7.5490    -5.1319    21.5844 C         1 MOL       0.0000
    995 C313        15.1867   -10.3401    21.6867 C         1 MOL       0.0000
    996 C314        12.1813     1.8032    17.7978 C         1 MOL       0.0000
    997 C315        20.8141    -3.8576    18.9253 C         1 MOL       0.0000
    998 C316         6.6171    -4.5068    20.6073 C         1 MOL       0.0000
    999 C317        16.1270   -10.9545    20.7395 C         1 MOL       0.0000
   1000 C318        11.2915     2.4500    18.7975 C         1 MOL       0.0000
   1001 C319        20.5653    -3.7827    20.3317 C         1 MOL       0.0000
   1002 C320         6.8335    -4.6268    19.2193 C         1 MOL       0.0000
   1003 C321        17.2564   -11.7148    21.1926 C         1 MOL       0.0000
   1004 C322        10.1968     3.2230    18.3526 C         1 MOL       0.0000
   1005 C323        11.5460     2.2792    20.1524 C         1 MOL       0.0000
   1006 C324        15.8792   -10.8223    19.3556 C         1 MOL       0.0000
   1007 C325        21.9478    -4.5566    18.4496 C         1 MOL       0.0000
   1008 C326         5.5170    -3.8144    21.1060 C         1 MOL       0.0000
   1009 C327        20.1298    -6.3390    13.2432 C         1 MOL       0.0000
   1010 C328        13.6601     5.4526    13.2682 C         1 MOL       0.0000
   1011 C329        17.9793    -7.6419    26.2122 C         1 MOL       0.0000
   1012 C330         4.6210    -6.0995    26.1928 C         1 MOL       0.0000
   1013 C331        14.8642    -2.5105    18.8030 C         1 MOL       0.0000
   1014 C332        10.1081    -9.6049    20.7211 C         1 MOL       0.0000
   1015 C333        15.3590   -11.9502    26.3150 C         1 MOL       0.0000
   1016 C334        13.5674     4.0191    13.2307 C         1 MOL       0.0000
   1017 C335        16.6814    -8.2587    26.2590 C         1 MOL       0.0000
   1018 C336         6.0233    -5.6851    26.2173 C         1 MOL       0.0000
   1019 C337        20.1692    -7.0081    14.4729 C         1 MOL       0.0000
   1020 C338         9.0224    -0.9077    25.1258 C         1 MOL       0.0000
   1021 C339         7.2696     0.2559    14.2611 C         1 MOL       0.0000
   1022 C340         3.9882    -6.3292    24.9643 C         1 MOL       0.0000
   1023 C341        18.6739    -7.3736    24.9788 C         1 MOL       0.0000
   1024 C342         8.5588     0.7361    14.3103 C         1 MOL       0.0000
   1025 C343        15.5117   -14.1455    25.1279 C         1 MOL       0.0000
   1026 C344        20.1909    -8.4092    14.5545 C         1 MOL       0.0000
   1027 N51         20.2459    -9.0081    15.7926 N         1 MOL       0.0000
   1028 N52         18.0949    -7.5564    23.7398 N         1 MOL       0.0000
   1029 N53         19.4844    -3.1364    20.8630 N         1 MOL       0.0000
   1030 N54         17.5874   -11.8730    22.5100 N         1 MOL       0.0000
   1031 O201        18.7418    -2.8482    18.2959 O         1 MOL       0.0000
   1032 O202         8.3180    -6.0827    21.1861 O         1 MOL       0.0000
   1033 O203        15.5682   -10.2157    22.9078 O         1 MOL       0.0000
   1034 O204        12.1155     2.2329    16.5982 O         1 MOL       0.0000
   1035 O205        12.9518     0.8460    18.1842 O         1 MOL       0.0000
   1036 O206        14.0163    -9.9717    21.2812 O         1 MOL       0.0000
   1037 O207        20.3300    -3.1725    16.7184 O         1 MOL       0.0000
   1038 O208         7.5070    -4.6956    22.7841 O         1 MOL       0.0000
   1039 O209        17.6574    -3.4274    15.7194 O         1 MOL       0.0000
   1040 O210        10.0112    -5.5688    23.2844 O         1 MOL       0.0000
   1041 O211        18.5962    -1.1401    16.1693 O         1 MOL       0.0000
   1042 O212         8.2590    -7.2935    23.7771 O         1 MOL       0.0000
   1043 O213        12.8655   -10.5014    23.8718 O         1 MOL       0.0000
   1044 O214        14.6340     1.3940    16.0999 O         1 MOL       0.0000
   1045 O215        13.8195    -8.2399    23.4077 O         1 MOL       0.0000
   1046 O216        12.9278    -0.3631    15.5825 O         1 MOL       0.0000
   1047 O217        16.0853    -2.6904    18.4487 O         1 MOL       0.0000
   1048 O218         9.4504    -8.5699    21.0993 O         1 MOL       0.0000
   1049 O219        15.2368   -11.3556    25.1739 O         1 MOL       0.0000
   1050 O220        13.4843     3.3176    14.3259 O         1 MOL       0.0000
   1051 O221        16.0389    -8.5675    25.1688 O         1 MOL       0.0000
   1052 O222        11.2483     1.4819    14.2658 O         1 MOL       0.0000
   1053 O223        11.2699    -9.8994    21.1789 O         1 MOL       0.0000
   1054 O224        14.1223    -1.5896    18.3096 O         1 MOL       0.0000
   1055 O225        20.7771    -1.4929    14.3120 O         1 MOL       0.0000
   1056 O226         6.6228    -5.4533    25.0998 O         1 MOL       0.0000
   1057 O227        19.9816    -4.2472    14.3414 O         1 MOL       0.0000
   1058 O228         8.8910    -3.6709    25.1811 O         1 MOL       0.0000
   1059 O229        15.8492    -1.0359    16.2204 O         1 MOL       0.0000
   1060 O230        11.1473    -8.0397    23.2015 O         1 MOL       0.0000
   1061 O231        18.3033    -2.2611    13.2876 O         1 MOL       0.0000
   1062 O232         9.1007    -6.2250    26.2159 O         1 MOL       0.0000
   1063 H305        15.0757    -6.1455    21.7190 H         1 MOL       0.0000
   1064 H306         4.7574     2.9649    19.3396 H         1 MOL       0.0000
   1065 H307        15.8190     2.5724    18.8034 H         1 MOL       0.0000
   1066 H308        16.0688    -4.6080    20.0005 H         1 MOL       0.0000
   1067 H309        11.4129    -3.8882    21.6152 H         1 MOL       0.0000
   1068 H310        23.4928   -10.2880    20.2198 H         1 MOL       0.0000
   1069 H311        12.7417    -5.7878    22.4794 H         1 MOL       0.0000
   1070 H312        12.4259    -2.3259    19.9272 H         1 MOL       0.0000
   1071 H313        17.1587     0.8032    17.6884 H         1 MOL       0.0000
   1072 H314        19.6145     0.7022    17.9868 H         1 MOL       0.0000
   1073 C345        14.2968    -3.3912    19.8518 C         1 MOL       0.0000
   1074 C346        13.1843    -5.1094    21.7518 C         1 MOL       0.0000
   1075 C347        17.6535     1.5304    18.3309 C         1 MOL       0.0000
   1076 C348         9.4432   -10.6069    19.8624 C         1 MOL       0.0000
   1077 C349        12.9880    -3.1726    20.3154 C         1 MOL       0.0000
   1078 C350        14.5016    -5.3103    21.3212 C         1 MOL       0.0000
   1079 C351        16.8975     2.5367    18.9446 C         1 MOL       0.0000
   1080 C352         3.6782     2.9780    19.2092 C         1 MOL       0.0000
   1081 C353        19.0409     1.4729    18.4979 C         1 MOL       0.0000
   1082 C354        24.0515   -11.1023    19.7657 C         1 MOL       0.0000
   1083 C355        15.0565    -4.4561    20.3678 C         1 MOL       0.0000
   1084 C356        12.4300    -4.0386    21.2566 C         1 MOL       0.0000
   1085 N55         16.5228     2.8496    14.4007 N         1 MOL       0.0000
   1086 N56         13.3801    -4.9978    26.0951 N         1 MOL       0.0000
   1087 C357        16.4055     3.5527    13.2216 C         1 MOL       0.0000
   1088 C358        12.6696    -4.0251    25.4307 C         1 MOL       0.0000
   1089 C359        15.7190    -4.9211    25.0582 C         1 MOL       0.0000
   1090 C360        16.0655     3.3947    15.6982 C         1 MOL       0.0000
   1091 C361        17.5575     1.9847    14.2612 C         1 MOL       0.0000
   1092 C362        14.5074    -5.7473    25.4967 C         1 MOL       0.0000
   1093 H315        11.2042    -2.6007    26.2573 H         1 MOL       0.0000
   1094 H316        12.8845    -3.7175    24.4210 H         1 MOL       0.0000
   1095 H317        15.4637    -4.1557    24.3177 H         1 MOL       0.0000
   1096 H318        15.7749     4.4314    15.5894 H         1 MOL       0.0000
   1097 H319        16.2135    -4.4326    25.9042 H         1 MOL       0.0000
   1098 H320        15.2345     2.8273    16.0706 H         1 MOL       0.0000
   1099 H321        16.4279    -5.6063    24.5726 H         1 MOL       0.0000
   1100 H322        14.0937    -6.2814    24.6337 H         1 MOL       0.0000
   1101 H323        16.8574     3.2743    16.4404 H         1 MOL       0.0000
   1102 H324        18.0280     1.4524    15.0731 H         1 MOL       0.0000
   1103 H325        14.7910    -6.4937    26.2429 H         1 MOL       0.0000
   1104 N57         13.3423    -1.0325    26.1939 N         1 MOL       0.0000
   1105 C363        11.7963    -7.0431    14.8510 C         1 MOL       0.0000
   1106 C364        20.7938   -13.2152    23.7773 C         1 MOL       0.0000
   1107 O233        25.0605    -7.8808    15.7535 O         1 MOL       0.0000
   1108 O234        20.1321     3.9053    14.6432 O         1 MOL       0.0000
   1109 O235        12.6822    -1.6818    23.7168 O         1 MOL       0.0000
   1110 O236        15.3780    -1.1791    22.2946 O         1 MOL       0.0000
   1111 F61         11.5681    -5.6413    15.4693 F         1 MOL       0.0000
   1112 F62         20.8958   -11.0532    25.1242 F         1 MOL       0.0000
   1113 F63         13.3644    -6.1620    14.1196 F         1 MOL       0.0000
   1114 F64         11.0506    -7.8595    17.1288 F         1 MOL       0.0000
   1115 F65         20.0450   -12.1883    23.2962 F         1 MOL       0.0000
   1116 F66         13.6774     0.4162    21.7894 F         1 MOL       0.0000
   1117 S21         19.1300     5.6122    14.4880 S         1 MOL       0.0000
   1118 S22         13.9561    -1.0362    24.1361 S         1 MOL       0.0000
   1119 N58         14.5660    -6.0779    16.5304 N         1 MOL       0.0000
   1120 N59         12.8177    -5.2409    17.5996 N         1 MOL       0.0000
   1121 C365        15.5620    -6.4306    15.4452 C         1 MOL       0.0000
   1122 C366        13.6037    -5.1101    16.5011 C         1 MOL       0.0000
   1123 C367        14.3944    -6.8051    17.7023 C         1 MOL       0.0000
   1124 C368        15.4338    -7.8255    14.7726 C         1 MOL       0.0000
   1125 C369        13.2961    -6.3257    18.3456 C         1 MOL       0.0000
   1126 C370        11.4159    -4.7660    17.7995 C         1 MOL       0.0000
   1127 H326        16.5531    -6.3254    15.8938 H         1 MOL       0.0000
   1128 H327        15.4460    -5.6714    14.6694 H         1 MOL       0.0000
   1129 H328        13.4161    -4.4381    15.6743 H         1 MOL       0.0000
   1130 H329        16.3729    -7.9981    14.2233 H         1 MOL       0.0000
   1131 H330        15.0615    -7.6168    17.9759 H         1 MOL       0.0000
   1132 H331        11.3137    -4.2972    18.7819 H         1 MOL       0.0000
   1133 H332        11.1001    -4.0811    17.0023 H         1 MOL       0.0000
   1134 H333        15.2949    -8.6635    15.4653 H         1 MOL       0.0000
   1135 H334        12.7967    -6.6133    19.2519 H         1 MOL       0.0000
   1136 H335        14.6200    -7.8437    14.0348 H         1 MOL       0.0000
   1137 H336        10.7527    -5.6304    17.7413 H         1 MOL       0.0000
   1138 N60         10.8426    -7.0737    13.9678 N         1 MOL       0.0000
   1139 C371         9.8673    -8.4266    16.9838 C         1 MOL       0.0000
   1140 C372        20.6235   -14.0702    25.1813 C         1 MOL       0.0000
   1141 O237        12.0599    -4.3729    13.2758 O         1 MOL       0.0000
   1142 O238         6.3842     5.0376    15.7147 O         1 MOL       0.0000
   1143 O239         7.6520   -13.6240    24.9960 O         1 MOL       0.0000
   1144 O240         6.0425     5.4066    13.2399 O         1 MOL       0.0000
   1145 F67          8.9985    -8.2020    17.9830 F         1 MOL       0.0000
   1146 F68         19.1928   -13.6202    25.8417 F         1 MOL       0.0000
   1147 F69         17.9263     4.5560    15.1816 F         1 MOL       0.0000
   1148 F70          3.6806     4.8521    17.0065 F         1 MOL       0.0000
   1149 F71         22.0434   -13.2534    23.5864 F         1 MOL       0.0000
   1150 F72         14.9339    -2.0044    24.6382 F         1 MOL       0.0000
   1151 S23          6.9627   -12.7174    25.8743 S         1 MOL       0.0000
   1152 S24          5.6566     5.6107    14.6058 S         1 MOL       0.0000
   1153 Ti49         6.6276    16.2858    11.2794 Ti        1 MOL       0.0000
   1154 Ti50        17.4580    19.1670     1.9146 Ti        1 MOL       0.0000
   1155 Ti51        10.7242    12.3496     9.4594 Ti        1 MOL       0.0000
   1156 Ti52        12.2354    21.5117     3.6864 Ti        1 MOL       0.0000
   1157 Ti53        11.2369    23.1900     1.7820 Ti        1 MOL       0.0000
   1158 Ti54        12.6125    12.0952    11.4128 Ti        1 MOL       0.0000
   1159 Ti55         7.5768    14.5499     9.3879 Ti        1 MOL       0.0000
   1160 Ti56        15.4702    19.4695     3.7621 Ti        1 MOL       0.0000
   1161 H337         7.1294    20.1828    11.0599 H         1 MOL       0.0000
   1162 H338        18.2668    15.2609     2.2353 H         1 MOL       0.0000
   1163 H339         2.6677    15.5291    10.8970 H         1 MOL       0.0000
   1164 H340        20.8402    21.1713     2.1152 H         1 MOL       0.0000
   1165 H341        13.5881     8.0607    11.0269 H         1 MOL       0.0000
   1166 H342         7.1783    22.6001     2.1040 H         1 MOL       0.0000
   1167 H343         7.0963    14.4872    13.0039 H         1 MOL       0.0000
   1168 H344        15.5825    18.9243     0.2147 H         1 MOL       0.0000
   1169 H345        13.1224    11.4281     5.9017 H         1 MOL       0.0000
   1170 H346        10.5120    23.3487     7.3053 H         1 MOL       0.0000
   1171 H347         3.5041    17.9385     9.0320 H         1 MOL       0.0000
   1172 H348        20.2128    17.0826     4.2206 H         1 MOL       0.0000
   1173 H349         5.8052    16.4911     5.6982 H         1 MOL       0.0000
   1174 H350         8.1368    25.0179     4.1352 H         1 MOL       0.0000
   1175 H351        11.6291    26.2928     2.6375 H         1 MOL       0.0000
   1176 H352        18.1090    13.2421     3.4378 H         1 MOL       0.0000
   1177 H353        14.3281    21.1918     2.3478 H         1 MOL       0.0000
   1178 H354         9.6435    14.1980    10.7530 H         1 MOL       0.0000
   1179 H355        16.8472    14.0301     9.8025 H         1 MOL       0.0000
   1180 H356        15.3661    13.5610    10.5498 H         1 MOL       0.0000
   1181 H357        17.4213    18.4637     8.7035 H         1 MOL       0.0000
   1182 H358        16.8516    18.8223     7.0850 H         1 MOL       0.0000
   1183 H359        16.3584     9.0752     9.6124 H         1 MOL       0.0000
   1184 H360        15.0792    10.1758    10.0698 H         1 MOL       0.0000
   1185 C373        18.0361    18.4257     4.7781 C         1 MOL       0.0000
   1186 C374         5.6670    16.5472     8.4324 C         1 MOL       0.0000
   1187 C375        13.3048    11.3389     8.5347 C         1 MOL       0.0000
   1188 C376        10.2993    23.4822     4.6457 C         1 MOL       0.0000
   1189 C377        18.9321    17.8214     5.7733 C         1 MOL       0.0000
   1190 C378         4.7351    17.1722     7.4553 C         1 MOL       0.0000
   1191 C379        14.2450    10.7245     7.5875 C         1 MOL       0.0000
   1192 C380         9.4095    24.1290     5.6455 C         1 MOL       0.0000
   1193 C381        18.6833    17.8963     7.1797 C         1 MOL       0.0000
   1194 C382         4.9515    17.0522     6.0673 C         1 MOL       0.0000
   1195 C383        15.3744     9.9642     8.0406 C         1 MOL       0.0000
   1196 C384         8.3148    24.9020     5.2006 C         1 MOL       0.0000
   1197 C385         9.6640    23.9582     7.0004 C         1 MOL       0.0000
   1198 C386        13.9972    10.8566     6.2036 C         1 MOL       0.0000
   1199 C387        20.0658    17.1224     5.2976 C         1 MOL       0.0000
   1200 C388         3.6349    17.8646     7.9540 C         1 MOL       0.0000
   1201 C389        18.2478    15.3400     0.0912 C         1 MOL       0.0000
   1202 C390        11.7781    27.1316     0.1162 C         1 MOL       0.0000
   1203 C391        16.0973    14.0371    13.0602 C         1 MOL       0.0000
   1204 C392         2.7390    15.5795    13.0408 C         1 MOL       0.0000
   1205 C393        12.9822    19.1685     5.6510 C         1 MOL       0.0000
   1206 C394         8.2261    12.0742     7.5691 C         1 MOL       0.0000
   1207 C395        13.4770     9.7288    13.1630 C         1 MOL       0.0000
   1208 C396        11.6854    25.6981     0.0787 C         1 MOL       0.0000
   1209 C397        14.7995    13.4203    13.1070 C         1 MOL       0.0000
   1210 C398         4.1413    15.9939    13.0653 C         1 MOL       0.0000
   1211 C399        18.2872    14.6709     1.3209 C         1 MOL       0.0000
   1212 C400         7.1404    20.7713    11.9738 C         1 MOL       0.0000
   1213 C401         5.3876    21.9349     1.1091 C         1 MOL       0.0000
   1214 C402         2.1062    15.3498    11.8123 C         1 MOL       0.0000
   1215 C403        16.7919    14.3054    11.8268 C         1 MOL       0.0000
   1216 C404         6.6768    22.4151     1.1583 C         1 MOL       0.0000
   1217 C405        13.6297     7.5335    11.9759 C         1 MOL       0.0000
   1218 C406        18.3089    13.2698     1.4025 C         1 MOL       0.0000
   1219 N61         18.3639    12.6709     2.6406 N         1 MOL       0.0000
   1220 N62         16.2129    14.1226    10.5878 N         1 MOL       0.0000
   1221 N63         17.6025    18.5426     7.7110 N         1 MOL       0.0000
   1222 N64         15.7054     9.8060     9.3580 N         1 MOL       0.0000
   1223 O241        16.8598    18.8308     5.1439 O         1 MOL       0.0000
   1224 O242         6.4360    15.5963     8.0341 O         1 MOL       0.0000
   1225 O243        13.6862    11.4633     9.7558 O         1 MOL       0.0000
   1226 O244        10.2335    23.9119     3.4461 O         1 MOL       0.0000
   1227 O245        11.0698    22.5250     5.0322 O         1 MOL       0.0000
   1228 O246        12.1343    11.7073     8.1292 O         1 MOL       0.0000
   1229 O247        18.4480    18.5065     3.5664 O         1 MOL       0.0000
   1230 O248         5.6250    16.9834     9.6321 O         1 MOL       0.0000
   1231 O249        15.7754    18.2516     2.5674 O         1 MOL       0.0000
   1232 O250         8.1292    16.1102    10.1324 O         1 MOL       0.0000
   1233 O251        16.7142    20.5389     3.0173 O         1 MOL       0.0000
   1234 O252         6.3770    14.3855    10.6251 O         1 MOL       0.0000
   1235 O253        10.9835    11.1776    10.7198 O         1 MOL       0.0000
   1236 O254        12.7520    23.0730     2.9479 O         1 MOL       0.0000
   1237 O255        11.9375    13.4391    10.2557 O         1 MOL       0.0000
   1238 O256        11.0458    21.3159     2.4305 O         1 MOL       0.0000
   1239 O257        14.2033    18.9886     5.2967 O         1 MOL       0.0000
   1240 O258         7.5684    13.1091     7.9473 O         1 MOL       0.0000
   1241 O259        13.3548    10.3234    12.0219 O         1 MOL       0.0000
   1242 O260        11.6023    24.9966     1.1739 O         1 MOL       0.0000
   1243 O261        14.1569    13.1115    12.0168 O         1 MOL       0.0000
   1244 O262         9.3663    23.1609     1.1138 O         1 MOL       0.0000
   1245 O263         9.3879    11.7796     8.0269 O         1 MOL       0.0000
   1246 O264        12.2403    20.0894     5.1576 O         1 MOL       0.0000
   1247 O265        18.8951    20.1861     1.1600 O         1 MOL       0.0000
   1248 O266         4.7408    16.2257    11.9478 O         1 MOL       0.0000
   1249 O267        18.0995    17.4318     1.1894 O         1 MOL       0.0000
   1250 O268         7.0090    18.0080    12.0291 O         1 MOL       0.0000
   1251 O269        13.9672    20.6431     3.0684 O         1 MOL       0.0000
   1252 O270         9.2653    13.6393    10.0495 O         1 MOL       0.0000
   1253 O271        16.4213    19.4179     0.1356 O         1 MOL       0.0000
   1254 O272         7.2187    15.4540    13.0639 O         1 MOL       0.0000
   1255 H361        13.1937    15.5335     8.5670 H         1 MOL       0.0000
   1256 H362         2.8754    24.6439     6.1876 H         1 MOL       0.0000
   1257 H363        13.9370    24.2514     5.6514 H         1 MOL       0.0000
   1258 H364        14.1868    17.0710     6.8485 H         1 MOL       0.0000
   1259 H365         9.5309    17.7908     8.4632 H         1 MOL       0.0000
   1260 H366        21.6108    11.3910     7.0678 H         1 MOL       0.0000
   1261 H367        10.8597    15.8912     9.3274 H         1 MOL       0.0000
   1262 H368        10.5439    19.3531     6.7752 H         1 MOL       0.0000
   1263 H369        15.2767    22.4822     4.5364 H         1 MOL       0.0000
   1264 H370        17.7325    22.3812     4.8348 H         1 MOL       0.0000
   1265 C407        12.4148    18.2878     6.6998 C         1 MOL       0.0000
   1266 C408        11.3023    16.5696     8.5998 C         1 MOL       0.0000
   1267 C409        15.7715    23.2094     5.1789 C         1 MOL       0.0000
   1268 C410         7.5612    11.0721     6.7104 C         1 MOL       0.0000
   1269 C411        11.1060    18.5064     7.1634 C         1 MOL       0.0000
   1270 C412        12.6196    16.3687     8.1692 C         1 MOL       0.0000
   1271 C413        15.0155    24.2157     5.7926 C         1 MOL       0.0000
   1272 C414         1.7962    24.6570     6.0572 C         1 MOL       0.0000
   1273 C415        17.1589    23.1519     5.3459 C         1 MOL       0.0000
   1274 C416        22.1695    10.5767     6.6137 C         1 MOL       0.0000
   1275 C417        13.1745    17.2229     7.2158 C         1 MOL       0.0000
   1276 C418        10.5480    17.6404     8.1046 C         1 MOL       0.0000
   1277 N65         14.6408    24.5286     1.2487 N         1 MOL       0.0000
   1278 N66         11.4981    16.6812    12.9431 N         1 MOL       0.0000
   1279 C419        14.5235    25.2317     0.0696 C         1 MOL       0.0000
   1280 C420        10.7876    17.6539    12.2787 C         1 MOL       0.0000
   1281 C421        13.8370    16.7579    11.9062 C         1 MOL       0.0000
   1282 C422        14.1835    25.0737     2.5462 C         1 MOL       0.0000
   1283 C423        15.6755    23.6637     1.1092 C         1 MOL       0.0000
   1284 C424        12.6254    15.9317    12.3447 C         1 MOL       0.0000
   1285 H371         9.3222    19.0783    13.1053 H         1 MOL       0.0000
   1286 H372        11.0025    17.9615    11.2690 H         1 MOL       0.0000
   1287 H373        13.5817    17.5233    11.1657 H         1 MOL       0.0000
   1288 H374        13.8929    26.1104     2.4374 H         1 MOL       0.0000
   1289 H375        14.3315    17.2464    12.7522 H         1 MOL       0.0000
   1290 H376        13.3525    24.5063     2.9186 H         1 MOL       0.0000
   1291 H377        14.5459    16.0727    11.4206 H         1 MOL       0.0000
   1292 H378        12.2117    15.3976    11.4817 H         1 MOL       0.0000
   1293 H379        14.9754    24.9533     3.2884 H         1 MOL       0.0000
   1294 H380        16.1460    23.1314     1.9211 H         1 MOL       0.0000
   1295 H381        12.9090    15.1853    13.0909 H         1 MOL       0.0000
   1296 N67         11.4603    20.6465    13.0419 N         1 MOL       0.0000
   1297 C425         9.9143    14.6359     1.6990 C         1 MOL       0.0000
   1298 C426        18.9118     8.4638    10.6253 C         1 MOL       0.0000
   1299 O273        23.1785    13.7982     2.6015 O         1 MOL       0.0000
   1300 O274        18.2501    25.5843     1.4912 O         1 MOL       0.0000
   1301 O275        10.8002    19.9972    10.5648 O         1 MOL       0.0000
   1302 O276        13.4960    20.4999     9.1426 O         1 MOL       0.0000
   1303 F73          9.6861    16.0377     2.3173 F         1 MOL       0.0000
   1304 F74         19.0138    10.6258    11.9722 F         1 MOL       0.0000
   1305 F75         11.4824    15.5170     0.9676 F         1 MOL       0.0000
   1306 F76          9.1686    13.8195     3.9768 F         1 MOL       0.0000
   1307 F77         18.1630     9.4907    10.1442 F         1 MOL       0.0000
   1308 F78         11.7954    22.0952     8.6374 F         1 MOL       0.0000
   1309 S25         17.2480    27.2912     1.3360 S         1 MOL       0.0000
   1310 S26         12.0741    20.6428    10.9841 S         1 MOL       0.0000
   1311 N68         12.6840    15.6011     3.3784 N         1 MOL       0.0000
   1312 N69         10.9357    16.4381     4.4476 N         1 MOL       0.0000
   1313 C427        13.6800    15.2484     2.2932 C         1 MOL       0.0000
   1314 C428        11.7217    16.5689     3.3491 C         1 MOL       0.0000
   1315 C429        12.5124    14.8739     4.5503 C         1 MOL       0.0000
   1316 C430        13.5518    13.8535     1.6206 C         1 MOL       0.0000
   1317 C431        11.4141    15.3533     5.1936 C         1 MOL       0.0000
   1318 C432         9.5339    16.9130     4.6475 C         1 MOL       0.0000
   1319 H382        14.6711    15.3536     2.7418 H         1 MOL       0.0000
   1320 H383        13.5640    16.0076     1.5174 H         1 MOL       0.0000
   1321 H384        11.5341    17.2409     2.5223 H         1 MOL       0.0000
   1322 H385        14.4909    13.6809     1.0713 H         1 MOL       0.0000
   1323 H386        13.1795    14.0622     4.8239 H         1 MOL       0.0000
   1324 H387         9.4317    17.3818     5.6299 H         1 MOL       0.0000
   1325 H388         9.2181    17.5979     3.8503 H         1 MOL       0.0000
   1326 H389        13.4129    13.0155     2.3133 H         1 MOL       0.0000
   1327 H390        10.9147    15.0657     6.0999 H         1 MOL       0.0000
   1328 H391        12.7380    13.8353     0.8828 H         1 MOL       0.0000
   1329 H392         8.8707    16.0486     4.5893 H         1 MOL       0.0000
   1330 N70          8.9606    14.6053     0.8158 N         1 MOL       0.0000
   1331 C433         7.9853    13.2524     3.8318 C         1 MOL       0.0000
   1332 C434        18.7415     7.6088    12.0293 C         1 MOL       0.0000
   1333 O277        10.1779    17.3061     0.1238 O         1 MOL       0.0000
   1334 O278         4.5022    26.7166     2.5627 O         1 MOL       0.0000
   1335 O279         5.7700     8.0550    11.8440 O         1 MOL       0.0000
   1336 O280         4.1605    27.0856     0.0879 O         1 MOL       0.0000
   1337 F79          7.1165    13.4770     4.8310 F         1 MOL       0.0000
   1338 F80         17.3108     8.0588    12.6897 F         1 MOL       0.0000
   1339 F81         16.0443    26.2350     2.0296 F         1 MOL       0.0000
   1340 F82          1.7986    26.5311     3.8545 F         1 MOL       0.0000
   1341 F83         20.1614     8.4256    10.4344 F         1 MOL       0.0000
   1342 F84         13.0519    19.6746    11.4862 F         1 MOL       0.0000
   1343 S27          5.0807     8.9616    12.7223 S         1 MOL       0.0000
   1344 S28          3.7746    27.2897     1.4538 S         1 MOL       0.0000
   1345 Ti57         1.9926     9.2198    24.3744 Ti        1 MOL       0.0000
   1346 Ti58        12.8230    12.1010    15.0096 Ti        1 MOL       0.0000
   1347 Ti59         6.0892     5.2836    22.5544 Ti        1 MOL       0.0000
   1348 Ti60         7.6004    14.4457    16.7814 Ti        1 MOL       0.0000
   1349 Ti61         6.6019    16.1240    14.8770 Ti        1 MOL       0.0000
   1350 Ti62         7.9775     5.0292    24.5078 Ti        1 MOL       0.0000
   1351 Ti63         2.9418     7.4839    22.4829 Ti        1 MOL       0.0000
   1352 Ti64        10.8352    12.4035    16.8571 Ti        1 MOL       0.0000
   1353 H393         2.4944    13.1168    24.1549 H         1 MOL       0.0000
   1354 H394        13.6318     8.1949    15.3303 H         1 MOL       0.0000
   1355 H395        -1.9673     8.4631    23.9920 H         1 MOL       0.0000
   1356 H396        16.2052    14.1053    15.2102 H         1 MOL       0.0000
   1357 H397         8.9531     0.9947    24.1219 H         1 MOL       0.0000
   1358 H398         2.5433    15.5341    15.1991 H         1 MOL       0.0000
   1359 H399         2.4613     7.4212    26.0989 H         1 MOL       0.0000
   1360 H400        10.9475    11.8583    13.3096 H         1 MOL       0.0000
   1361 H401         8.4874     4.3621    18.9967 H         1 MOL       0.0000
   1362 H402         5.8770    16.2827    20.4003 H         1 MOL       0.0000
   1363 H403        -1.1309    10.8725    22.1270 H         1 MOL       0.0000
   1364 H404        15.5778    10.0166    17.3156 H         1 MOL       0.0000
   1365 H405         1.1702     9.4251    18.7932 H         1 MOL       0.0000
   1366 H406         3.5018    17.9519    17.2302 H         1 MOL       0.0000
   1367 H407         6.9941    19.2268    15.7325 H         1 MOL       0.0000
   1368 H408        13.4740     6.1761    16.5328 H         1 MOL       0.0000
   1369 H409         9.6931    14.1258    15.4428 H         1 MOL       0.0000
   1370 H410         5.0085     7.1320    23.8480 H         1 MOL       0.0000
   1371 H411        12.2122     6.9641    22.8975 H         1 MOL       0.0000
   1372 H412        10.7311     6.4950    23.6448 H         1 MOL       0.0000
   1373 H413        12.7863    11.3977    21.7985 H         1 MOL       0.0000
   1374 H414        12.2166    11.7563    20.1800 H         1 MOL       0.0000
   1375 H415        11.7234     2.0092    22.7074 H         1 MOL       0.0000
   1376 H416        10.4442     3.1098    23.1648 H         1 MOL       0.0000
   1377 C435        13.4011    11.3597    17.8731 C         1 MOL       0.0000
   1378 C436         1.0320     9.4811    21.5274 C         1 MOL       0.0000
   1379 C437         8.6698     4.2729    21.6297 C         1 MOL       0.0000
   1380 C438         5.6643    16.4162    17.7407 C         1 MOL       0.0000
   1381 C439        14.2971    10.7554    18.8683 C         1 MOL       0.0000
   1382 C440         0.1001    10.1062    20.5503 C         1 MOL       0.0000
   1383 C441         9.6100     3.6585    20.6825 C         1 MOL       0.0000
   1384 C442         4.7745    17.0630    18.7405 C         1 MOL       0.0000
   1385 C443        14.0483    10.8303    20.2747 C         1 MOL       0.0000
   1386 C444         0.3165     9.9862    19.1623 C         1 MOL       0.0000
   1387 C445        10.7394     2.8982    21.1356 C         1 MOL       0.0000
   1388 C446         3.6798    17.8360    18.2956 C         1 MOL       0.0000
   1389 C447         5.0290    16.8923    20.0954 C         1 MOL       0.0000
   1390 C448         9.3622     3.7906    19.2986 C         1 MOL       0.0000
   1391 C449        15.4308    10.0564    18.3926 C         1 MOL       0.0000
   1392 C450        -1.0001    10.7986    21.0490 C         1 MOL       0.0000
   1393 C451        13.6128     8.2740    13.1862 C         1 MOL       0.0000
   1394 C452         7.1431    20.0656    13.2112 C         1 MOL       0.0000
   1395 C453        11.4623     6.9711    26.1552 C         1 MOL       0.0000
   1396 C454        -1.8960     8.5135    26.1358 C         1 MOL       0.0000
   1397 C455         8.3472    12.1025    18.7460 C         1 MOL       0.0000
   1398 C456         3.5911     5.0082    20.6641 C         1 MOL       0.0000
   1399 C457         8.8420     2.6628    26.2580 C         1 MOL       0.0000
   1400 C458         7.0504    18.6321    13.1737 C         1 MOL       0.0000
   1401 C459        10.1645     6.3543    26.2020 C         1 MOL       0.0000
   1402 C460        -0.4937     8.9279    26.1603 C         1 MOL       0.0000
   1403 C461        13.6522     7.6049    14.4159 C         1 MOL       0.0000
   1404 C462         2.5054    13.7053    25.0688 C         1 MOL       0.0000
   1405 C463         0.7526    14.8689    14.2041 C         1 MOL       0.0000
   1406 C464        -2.5288     8.2838    24.9073 C         1 MOL       0.0000
   1407 C465        12.1569     7.2394    24.9218 C         1 MOL       0.0000
   1408 C466         2.0418    15.3491    14.2533 C         1 MOL       0.0000
   1409 C467         8.9947     0.4675    25.0709 C         1 MOL       0.0000
   1410 C468        13.6739     6.2038    14.4975 C         1 MOL       0.0000
   1411 N71         13.7289     5.6049    15.7356 N         1 MOL       0.0000
   1412 N72         11.5779     7.0566    23.6828 N         1 MOL       0.0000
   1413 N73         12.9675    11.4766    20.8060 N         1 MOL       0.0000
   1414 N74         11.0704     2.7400    22.4530 N         1 MOL       0.0000
   1415 O281        12.2248    11.7648    18.2389 O         1 MOL       0.0000
   1416 O282         1.8010     8.5303    21.1291 O         1 MOL       0.0000
   1417 O283         9.0512     4.3973    22.8508 O         1 MOL       0.0000
   1418 O284         5.5985    16.8459    16.5412 O         1 MOL       0.0000
   1419 O285         6.4348    15.4590    18.1272 O         1 MOL       0.0000
   1420 O286         7.4993     4.6413    21.2242 O         1 MOL       0.0000
   1421 O287        13.8130    11.4405    16.6614 O         1 MOL       0.0000
   1422 O288         0.9900     9.9174    22.7271 O         1 MOL       0.0000
   1423 O289        11.1404    11.1856    15.6624 O         1 MOL       0.0000
   1424 O290         3.4942     9.0442    23.2274 O         1 MOL       0.0000
   1425 O291        12.0792    13.4729    16.1123 O         1 MOL       0.0000
   1426 O292         1.7420     7.3195    23.7201 O         1 MOL       0.0000
   1427 O293         6.3486     4.1116    23.8148 O         1 MOL       0.0000
   1428 O294         8.1170    16.0070    16.0429 O         1 MOL       0.0000
   1429 O295         7.3025     6.3731    23.3507 O         1 MOL       0.0000
   1430 O296         6.4108    14.2499    15.5255 O         1 MOL       0.0000
   1431 O297         9.5683    11.9226    18.3917 O         1 MOL       0.0000
   1432 O298         2.9334     6.0431    21.0423 O         1 MOL       0.0000
   1433 O299         8.7198     3.2574    25.1169 O         1 MOL       0.0000
   1434 O300         6.9673    17.9306    14.2689 O         1 MOL       0.0000
   1435 O301         9.5219     6.0455    25.1118 O         1 MOL       0.0000
   1436 O302         4.7313    16.0949    14.2088 O         1 MOL       0.0000
   1437 O303         4.7529     4.7136    21.1219 O         1 MOL       0.0000
   1438 O304         7.6053    13.0234    18.2526 O         1 MOL       0.0000
   1439 O305        14.2601    13.1201    14.2550 O         1 MOL       0.0000
   1440 O306         0.1058     9.1597    25.0428 O         1 MOL       0.0000
   1441 O307        13.4645    10.3658    14.2844 O         1 MOL       0.0000
   1442 O308         2.3740    10.9420    25.1241 O         1 MOL       0.0000
   1443 O309         9.3322    13.5771    16.1634 O         1 MOL       0.0000
   1444 O310         4.6303     6.5733    23.1445 O         1 MOL       0.0000
   1445 O311        11.7863    12.3519    13.2306 O         1 MOL       0.0000
   1446 O312         2.5837     8.3880    26.1589 O         1 MOL       0.0000
   1447 H417         8.5587     8.4675    21.6620 H         1 MOL       0.0000
   1448 H418        -1.7596    17.5779    19.2826 H         1 MOL       0.0000
   1449 H419         9.3020    17.1854    18.7464 H         1 MOL       0.0000
   1450 H420         9.5518    10.0050    19.9435 H         1 MOL       0.0000
   1451 H421         4.8959    10.7248    21.5582 H         1 MOL       0.0000
   1452 H422        16.9758     4.3250    20.1628 H         1 MOL       0.0000
   1453 H423         6.2247     8.8252    22.4224 H         1 MOL       0.0000
   1454 H424         5.9089    12.2871    19.8702 H         1 MOL       0.0000
   1455 H425        10.6417    15.4162    17.6314 H         1 MOL       0.0000
   1456 H426        13.0975    15.3152    17.9298 H         1 MOL       0.0000
   1457 C469         7.7798    11.2218    19.7948 C         1 MOL       0.0000
   1458 C470         6.6673     9.5036    21.6948 C         1 MOL       0.0000
   1459 C471        11.1365    16.1434    18.2739 C         1 MOL       0.0000
   1460 C472         2.9262     4.0061    19.8054 C         1 MOL       0.0000
   1461 C473         6.4710    11.4404    20.2584 C         1 MOL       0.0000
   1462 C474         7.9846     9.3027    21.2642 C         1 MOL       0.0000
   1463 C475        10.3805    17.1497    18.8876 C         1 MOL       0.0000
   1464 C476        -2.8388    17.5910    19.1522 C         1 MOL       0.0000
   1465 C477        12.5239    16.0859    18.4409 C         1 MOL       0.0000
   1466 C478        17.5345     3.5107    19.7087 C         1 MOL       0.0000
   1467 C479         8.5395    10.1569    20.3108 C         1 MOL       0.0000
   1468 C480         5.9130    10.5744    21.1996 C         1 MOL       0.0000
   1469 N75         10.0058    17.4626    14.3437 N         1 MOL       0.0000
   1470 N76          6.8631     9.6152    26.0381 N         1 MOL       0.0000
   1471 C481         9.8885    18.1657    13.1646 C         1 MOL       0.0000
   1472 C482         6.1526    10.5879    25.3737 C         1 MOL       0.0000
   1473 C483         9.2020     9.6919    25.0012 C         1 MOL       0.0000
   1474 C484         9.5485    18.0077    15.6412 C         1 MOL       0.0000
   1475 C485        11.0405    16.5977    14.2042 C         1 MOL       0.0000
   1476 C486         7.9904     8.8657    25.4397 C         1 MOL       0.0000
   1477 H427         4.6872    12.0123    26.2003 H         1 MOL       0.0000
   1478 H428         6.3675    10.8955    24.3640 H         1 MOL       0.0000
   1479 H429         8.9467    10.4573    24.2607 H         1 MOL       0.0000
   1480 H430         9.2579    19.0444    15.5324 H         1 MOL       0.0000
   1481 H431         9.6965    10.1804    25.8472 H         1 MOL       0.0000
   1482 H432         8.7175    17.4403    16.0136 H         1 MOL       0.0000
   1483 H433         9.9109     9.0067    24.5156 H         1 MOL       0.0000
   1484 H434         7.5767     8.3316    24.5767 H         1 MOL       0.0000
   1485 H435        10.3404    17.8873    16.3834 H         1 MOL       0.0000
   1486 H436        11.5110    16.0654    15.0161 H         1 MOL       0.0000
   1487 H437         8.2740     8.1193    26.1859 H         1 MOL       0.0000
   1488 N77          6.8253    13.5805    26.1369 N         1 MOL       0.0000
   1489 C487         5.2793     7.5699    14.7940 C         1 MOL       0.0000
   1490 C488        14.2768     1.3978    23.7203 C         1 MOL       0.0000
   1491 O313        18.5435     6.7322    15.6965 O         1 MOL       0.0000
   1492 O314        13.6151    18.5183    14.5862 O         1 MOL       0.0000
   1493 O315         6.1652    12.9312    23.6598 O         1 MOL       0.0000
   1494 O316         8.8610    13.4339    22.2376 O         1 MOL       0.0000
   1495 F85          5.0511     8.9717    15.4123 F         1 MOL       0.0000
   1496 F86         14.3788     3.5598    25.0672 F         1 MOL       0.0000
   1497 F87          6.8474     8.4510    14.0626 F         1 MOL       0.0000
   1498 F88          4.5336     6.7535    17.0718 F         1 MOL       0.0000
   1499 F89         13.5280     2.4247    23.2392 F         1 MOL       0.0000
   1500 F90          7.1604    15.0292    21.7324 F         1 MOL       0.0000
   1501 S29         12.6130    20.2252    14.4310 S         1 MOL       0.0000
   1502 S30          7.4391    13.5768    24.0791 S         1 MOL       0.0000
   1503 N78          8.0490     8.5351    16.4734 N         1 MOL       0.0000
   1504 N79          6.3007     9.3721    17.5426 N         1 MOL       0.0000
   1505 C489         9.0450     8.1824    15.3882 C         1 MOL       0.0000
   1506 C490         7.0867     9.5029    16.4441 C         1 MOL       0.0000
   1507 C491         7.8774     7.8079    17.6453 C         1 MOL       0.0000
   1508 C492         8.9168     6.7875    14.7156 C         1 MOL       0.0000
   1509 C493         6.7791     8.2873    18.2886 C         1 MOL       0.0000
   1510 C494         4.8989     9.8470    17.7425 C         1 MOL       0.0000
   1511 H438        10.0361     8.2876    15.8368 H         1 MOL       0.0000
   1512 H439         8.9290     8.9416    14.6124 H         1 MOL       0.0000
   1513 H440         6.8991    10.1749    15.6173 H         1 MOL       0.0000
   1514 H441         9.8559     6.6149    14.1663 H         1 MOL       0.0000
   1515 H442         8.5445     6.9962    17.9189 H         1 MOL       0.0000
   1516 H443         4.7967    10.3158    18.7249 H         1 MOL       0.0000
   1517 H444         4.5831    10.5319    16.9453 H         1 MOL       0.0000
   1518 H445         8.7779     5.9495    15.4083 H         1 MOL       0.0000
   1519 H446         6.2797     7.9997    19.1949 H         1 MOL       0.0000
   1520 H447         8.1030     6.7693    13.9778 H         1 MOL       0.0000
   1521 H448         4.2357     8.9826    17.6843 H         1 MOL       0.0000
   1522 N80          4.3256     7.5393    13.9108 N         1 MOL       0.0000
   1523 C495         3.3503     6.1864    16.9268 C         1 MOL       0.0000
   1524 C496        14.1065     0.5428    25.1243 C         1 MOL       0.0000
   1525 O317         5.5429    10.2401    13.2188 O         1 MOL       0.0000
   1526 O318        -0.1328    19.6506    15.6577 O         1 MOL       0.0000
   1527 O319         1.1350     0.9890    24.9390 O         1 MOL       0.0000
   1528 O320        -0.4745    20.0196    13.1829 O         1 MOL       0.0000
   1529 F91          2.4815     6.4110    17.9260 F         1 MOL       0.0000
   1530 F92         12.6758     0.9928    25.7847 F         1 MOL       0.0000
   1531 F93         11.4093    19.1690    15.1246 F         1 MOL       0.0000
   1532 F94         -2.8364    19.4651    16.9495 F         1 MOL       0.0000
   1533 F95         15.5264     1.3596    23.5294 F         1 MOL       0.0000
   1534 F96          8.4169    12.6086    24.5812 F         1 MOL       0.0000
   1535 S31          0.4457     1.8956    25.8173 S         1 MOL       0.0000
   1536 S32         -0.8604    20.2237    14.5488 S         1 MOL       0.0000
@<TRIPOS>BOND
     1     1    78 1
     2     1    96 1
     3     7    88 1
     4     7   100 1
     5     1     7 1
     6     1    80 1
     7     1    82 1
     8     7    72 1
     9     7    80 1
    10     7    82 1
    11     1   102 1
    12     1   197 1
    13     1    98 1
    14     2     8 1
    15     2    79 1
    16     2    81 1
    17     2   101 1
    18     2    97 1
    19     2    77 1
    20     2    95 1
    21     3    93 1
    22     3   100 1
    23     3    76 1
    24     3    83 1
    25     3    85 1
    26     3     6 1
    27     4    86 1
    28     4    94 1
    29     4     5 1
    30     4    84 1
    31     4    75 1
    32     4    99 1
    33     5    92 1
    34     5    86 1
    35     5    74 1
    36     5    84 1
    37     5    90 1
    38     6    83 1
    39     6    85 1
    40     6   194 1
    41     6   293 1
    42   194   293 1
    43   208   293 1
    44   194   200 1
    45   194   271 1
    46   194   273 1
    47     6    73 1
    48     6    89 1
    49     6    91 1
    50   194   287 1
    51   194   289 1
    52   194   269 1
    53     8    79 1
    54     8    81 1
    55     8    99 1
    56    16   101 1
    57    25    99 1
    58     8    71 1
    59     8    87 1
    60     9    60 1
    61    59    66 1
    62    10    59 1
    63    49    59 1
    64    34    38 1
    65    34    78 1
    66    11    62 1
    67    34    72 1
    68    12   829 1
    69   829   832 1
    70    31    70 1
    71    32    70 1
    72    43    70 1
    73    13    65 1
    74    14    64 1
    75   197   284 1
    76   197   266 1
    77    15   102 1
    78   102   197 1
    79   197   276 1
    80   197   278 1
    81   197   282 1
    82    17    46 1
    83    36    40 1
    84    45   427 1
    85    36    74 1
    86    18    45 1
    87    36    75 1
    88    19    48 1
    89    20    47 1
    90    47   810 1
    91    21    42 1
    92    22    44 1
    93    40    44 1
    94    44   430 1
    95    40    45 1
    96    56    90 1
    97    23   451 1
    98    50    56 1
    99    50   450 1
   100   408   451 1
   101   450   451 1
   102    24    67 1
   103    66    67 1
   104    26   100 1
   105   118   123 1
   106   103   118 1
   107   107   124 1
   108   109   114 1
   109   114   118 1
   110   114   124 1
   111    35    76 1
   112    39    43 1
   113    39    46 1
   114    35    39 1
   115    35    73 1
   116    27    68 1
   117    28    68 1
   118    29    69 1
   119    30    69 1
   120    33    71 1
   121    37    47 1
   122    41   816 1
   123    33    77 1
   124    33    37 1
   125    37    41 1
   126    41    69 1
   127    38    42 1
   128    38    48 1
   129    51    57 1
   130    57    91 1
   131    57   287 1
   132    51    63 1
   133    51  1021 1
   134    52    58 1
   135    52    62 1
   136    52   256 1
   137    58    96 1
   138    58   284 1
   139   113   123 1
   140   117   124 1
   141    53    94 1
   142    53   113 1
   143   110   117 1
   144   113   117 1
   145    53    87 1
   146    54   116 1
   147    54    88 1
   148    54    93 1
   149   251   258 1
   150    55   241 1
   151    65   241 1
   152   241   251 1
   153    55    89 1
   154    55   289 1
   155    60   242 1
   156    98   248 1
   157   242   248 1
   158   242   642 1
   159   248   282 1
   160   642   643 1
   161    60   449 1
   162   133   319 1
   163    61    64 1
   164   129   132 1
   165    63    68 1
   166   129   135 1
   167   129   137 1
   168   129   139 1
   169    63   830 1
   170  1021  1024 1
   171   104   120 1
   172   105   119 1
   173   111   115 1
   174   115   119 1
   175   119   506 1
   176   115   121 1
   177   506  1268 1
   178   106   123 1
   179   108   122 1
   180   122   884 1
   181   947   953 1
   182   112   121 1
   183   121   888 1
   184   872   888 1
   185   888  1268 1
   186   154   179 1
   187   179   185 1
   188   120   500 1
   189   166   172 1
   190   166   173 1
   191   166   177 1
   192   160   162 1
   193   160   165 1
   194   160   166 1
   195   163   165 1
   196   163   171 1
   197   165   175 1
   198   125   127 1
   199   125   130 1
   200   125   131 1
   201   130   138 1
   202   130   141 1
   203   131   142 1
   204   130   136 1
   205   126   128 1
   206   126   132 1
   207   126   323 1
   208   132   140 1
   209   132   143 1
   210   317   323 1
   211   323   334 1
   212   128   134 1
   213   128   319 1
   214   317   319 1
   215   317   322 1
   216   149   158 1
   217   158   190 1
   218   158   564 1
   219   144   158 1
   220   144   349 1
   221   349   379 1
   222   349   723 1
   223   349  1522 1
   224   145   178 1
   225   145   151 1
   226   159   162 1
   227   162   169 1
   228   159   163 1
   229   159   161 1
   230   146   155 1
   231   146   189 1
   232   146   180 1
   233   157   187 1
   234   157   531 1
   235   148   157 1
   236   148   960 1
   237   157  1330 1
   238   950   960 1
   239   952   960 1
   240   960  1297 1
   241  1297  1330 1
   242  1297  1303 1
   243   415   454 1
   244   530   539 1
   245   530   564 1
   246   530   573 1
   247   161   164 1
   248   161   167 1
   249   161   168 1
   250   164   176 1
   251   164   170 1
   252   164   174 1
   253   180   186 1
   254   182   192 1
   255   184   192 1
   256   192   529 1
   257   183   191 1
   258   356   366 1
   259   356   368 1
   260   356   362 1
   261   188   563 1
   262   438   500 1
   263   438   472 1
   264   438   477 1
   265   191   370 1
   266   191   373 1
   267   337   370 1
   268   337   343 1
   269   193   270 1
   270   193   274 1
   271   193   288 1
   272   193   199 1
   273   193   272 1
   274   193   294 1
   275   207   294 1
   276   218   292 1
   277   193   290 1
   278   195   285 1
   279   195   292 1
   280   195   268 1
   281   195   198 1
   282   195   275 1
   283   195   277 1
   284   198   265 1
   285   198   275 1
   286   198   277 1
   287   198   281 1
   288   198   283 1
   289   196   286 1
   290   196   291 1
   291   196   197 1
   292   196   267 1
   293   196   276 1
   294   196   278 1
   295   297   311 1
   296   199   264 1
   297   199   274 1
   298   199   280 1
   299   199   272 1
   300   199   292 1
   301   200   291 1
   302   200   263 1
   303   200   271 1
   304   200   273 1
   305   200   279 1
   306   201   252 1
   307   252   641 1
   308   202   251 1
   309   212   239 1
   310   239  1002 1
   311   203   254 1
   312   244   254 1
   313   244   250 1
   314   204  1021 1
   315   205   257 1
   316   247   281 1
   317   206   256 1
   318   228   232 1
   319   228   266 1
   320   232   237 1
   321   232   236 1
   322   228   267 1
   323   209   238 1
   324   227   268 1
   325   227   265 1
   326   227   231 1
   327   210   237 1
   328   211   240 1
   329   213   234 1
   330   226   230 1
   331   226   264 1
   332   230   234 1
   333   226   270 1
   334   230   240 1
   335   214   236 1
   336   236   622 1
   337   215   643 1
   338   600   643 1
   339   216   259 1
   340   217   291 1
   341   303   307 1
   342   304   313 1
   343   307   313 1
   344   307   311 1
   345   313  1080 1
   346   243   249 1
   347   219   260 1
   348   243   255 1
   349   255   260 1
   350   255  1022 1
   351   224   262 1
   352   249   283 1
   353   220   260 1
   354   221   261 1
   355   222   261 1
   356   223   262 1
   357   225   263 1
   358   225   269 1
   359   225   229 1
   360   233   261 1
   361   229   239 1
   362   233  1008 1
   363   979  1008 1
   364   229   233 1
   365   231   238 1
   366   235   262 1
   367   231   235 1
   368   237   619 1
   369   619   646 1
   370   245   286 1
   371   245   305 1
   372   245   279 1
   373   246   280 1
   374   246   285 1
   375   246   308 1
   376   250   288 1
   377   253   256 1
   378   258   259 1
   379   295   310 1
   380   301   306 1
   381   306   310 1
   382   310   315 1
   383   306   316 1
   384   296   312 1
   385   298   315 1
   386   299   316 1
   387   300   314 1
   388   305   315 1
   389   302   309 1
   390   305   309 1
   391   309   316 1
   392   311   698 1
   393  1080  1460 1
   394   312   692 1
   395   314  1076 1
   396  1014  1048 1
   397  1014  1076 1
   398  1014  1053 1
   399   318   324 1
   400   321   324 1
   401   324   332 1
   402   324   335 1
   403   318   320 1
   404   321   327 1
   405   321   329 1
   406   321   331 1
   407   320   326 1
   408   336   350 1
   409   341   350 1
   410   350   382 1
   411   350   756 1
   412   322   330 1
   413   322   328 1
   414   322   333 1
   415  1148  1523 1
   416  1523  1529 1
   417   372   378 1
   418   338   347 1
   419   338   372 1
   420   338   381 1
   421   340   349 1
   422   340  1152 1
   423  1144  1152 1
   424  1152  1489 1
   425   346   371 1
   426   358   369 1
   427   358   364 1
   428   358   365 1
   429   352   358 1
   430   353   356 1
   431   353   360 1
   432   351   353 1
   433   351   354 1
   434   351   355 1
   435   352   354 1
   436   352   357 1
   437   354   361 1
   438   355   357 1
   439   355   363 1
   440   357   367 1
   441   353   359 1
   442   371   377 1
   443   374   384 1
   444   375   383 1
   445   376   384 1
   446   384   721 1
   447   380   755 1
   448   730   755 1
   449   755   761 1
   450   418   422 1
   451   385   480 1
   452   385   466 1
   453   391   466 1
   454   391   472 1
   455   385   391 1
   456   385   462 1
   457   385   464 1
   458   391   456 1
   459   391   464 1
   460   418   456 1
   461   418   462 1
   462   385   482 1
   463   385   486 1
   464   385   581 1
   465   391   484 1
   466   386   392 1
   467   386   463 1
   468   386   481 1
   469   386   461 1
   470   386   465 1
   471   386   479 1
   472   386   485 1
   473   387   460 1
   474   387   467 1
   475   387   469 1
   476   387   477 1
   477   387   484 1
   478   410   484 1
   479   387   390 1
   480   388   470 1
   481   388   478 1
   482   388   389 1
   483   388   459 1
   484   388   483 1
   485   388   468 1
   486   389   470 1
   487   389   458 1
   488   389   474 1
   489   389   476 1
   490   389   468 1
   491   390   467 1
   492   390   469 1
   493   390   677 1
   494   578   677 1
   495   578   584 1
   496   578   655 1
   497   578   657 1
   498   390   473 1
   499   578   673 1
   500   390   457 1
   501   390   475 1
   502   390   578 1
   503   441   475 1
   504   441   671 1
   505   578   671 1
   506   578   653 1
   507   392   463 1
   508   392   483 1
   509   409   483 1
   510   392   471 1
   511   392   465 1
   512   400   485 1
   513   392   455 1
   514   393   444 1
   515   443   450 1
   516   394   443 1
   517   433   443 1
   518   403   432 1
   519   395   446 1
   520   396  1213 1
   521  1213  1216 1
   522   416   454 1
   523   427   454 1
   524   397   449 1
   525   398   448 1
   526   581   668 1
   527   581   662 1
   528   399   486 1
   529   486   581 1
   530   581   666 1
   531   581   650 1
   532   581   660 1
   533   482   632 1
   534   423   427 1
   535   401   430 1
   536   423   430 1
   537   424   428 1
   538   420   458 1
   539   402   429 1
   540   420   424 1
   541   420   459 1
   542   424   429 1
   543  1190  1200 1
   544   404   431 1
   545   431  1194 1
   546  1173  1194 1
   547  1190  1194 1
   548   405   426 1
   549   406   428 1
   550   434   440 1
   551   411   452 1
   552   419   460 1
   553   419   423 1
   554   419   457 1
   555   412   452 1
   556   413   453 1
   557   417   421 1
   558   417   461 1
   559   417   455 1
   560   414   453 1
   561   421   425 1
   562   425  1200 1
   563   425   453 1
   564   421   431 1
   565   422   432 1
   566   422   426 1
   567   435   441 1
   568   447   452 1
   569   435   447 1
   570   435  1405 1
   571   447  1214 1
   572  1405  1408 1
   573   436   442 1
   574   436   446 1
   575   436   640 1
   576   442   480 1
   577   442   668 1
   578   437   478 1
   579   497   501 1
   580   497   507 1
   581   437   471 1
   582   437   497 1
   583   635   642 1
   584   439   473 1
   585   439   625 1
   586   439   673 1
   587   449   625 1
   588   625   635 1
   589   440   474 1
   590   632   666 1
   591   444   626 1
   592   626   632 1
   593   445   448 1
   594   509   511 1
   595   509   514 1
   596   509   515 1
   597   514   522 1
   598   514   525 1
   599   514   520 1
   600   515   526 1
   601   501   508 1
   602   494   501 1
   603   502   507 1
   604   487   502 1
   605   488   504 1
   606   489   503 1
   607   495   499 1
   608   499   503 1
   609   499   505 1
   610   547   549 1
   611   547   555 1
   612   490   507 1
   613   491   508 1
   614   493   498 1
   615   498   508 1
   616   498   502 1
   617   492   506 1
   618   496   505 1
   619   505  1272 1
   620  1256  1272 1
   621   512   518 1
   622   510   512 1
   623   510   707 1
   624   512   703 1
   625   701   703 1
   626   701   707 1
   627   707   718 1
   628   701   706 1
   629   510   516 1
   630   516   524 1
   631   513   519 1
   632   513   516 1
   633   513   521 1
   634   513   523 1
   635   516   527 1
   636   517   703 1
   637   528   542 1
   638   528   733 1
   639   532   541 1
   640   532  1344 1
   641   529   535 1
   642   529   562 1
   643   546   553 1
   644   533   542 1
   645   542   574 1
   646   564   570 1
   647   538   563 1
   648   541   571 1
   649   543   546 1
   650   545   548 1
   651   543   545 1
   652   545   551 1
   653   545   552 1
   654   543   547 1
   655   544   546 1
   656   544   549 1
   657   544   550 1
   658   549   559 1
   659   550   556 1
   660   550   557 1
   661   550   561 1
   662   548   554 1
   663   548   558 1
   664   548   560 1
   665   563   569 1
   666   566   576 1
   667   575   754 1
   668   721   754 1
   669   567   575 1
   670   575   757 1
   671   721   727 1
   672   568   576 1
   673   733   763 1
   674   724   733 1
   675   724  1536 1
   676  1528  1536 1
   677   577   654 1
   678   577   672 1
   679   577   583 1
   680   577   656 1
   681   577   658 1
   682   577   678 1
   683   591   678 1
   684   577   674 1
   685   579   676 1
   686   579   652 1
   687   579   669 1
   688   579   582 1
   689   579   659 1
   690   579   661 1
   691   593   622 1
   692   616   620 1
   693   580   662 1
   694   580   670 1
   695   580   581 1
   696   580   651 1
   697   580   660 1
   698   612   616 1
   699   612   650 1
   700   612   651 1
   701   616   621 1
   702   580   675 1
   703   582   659 1
   704   582   661 1
   705   582   649 1
   706   582   665 1
   707   582   667 1
   708   610   614 1
   709   610   654 1
   710   583   664 1
   711   583   676 1
   712   583   648 1
   713   610   648 1
   714   583   656 1
   715   583   658 1
   716   584   647 1
   717   584   655 1
   718   584   657 1
   719   584   663 1
   720   584   675 1
   721   601   675 1
   722   585   636 1
   723   586   635 1
   724   596   623 1
   725   623  1386 1
   726   587   638 1
   727   628   634 1
   728   628   638 1
   729   634   672 1
   730   588  1405 1
   731   607   646 1
   732   608   646 1
   733   589   641 1
   734   631   665 1
   735   590   640 1
   736   598   620 1
   737   592   677 1
   738   594   621 1
   739   595   624 1
   740   597   618 1
   741   602   676 1
   742   702   704 1
   743   702   708 1
   744   708   716 1
   745   708   719 1
   746   704   710 1
   747   705   708 1
   748   627   633 1
   749   603   644 1
   750   627   639 1
   751   639   644 1
   752   705   711 1
   753   705   713 1
   754   705   715 1
   755   639  1406 1
   756   633   667 1
   757   604   644 1
   758   613   623 1
   759   617  1392 1
   760   605   645 1
   761   613   617 1
   762   617   645 1
   763   606   645 1
   764   609   647 1
   765   609   653 1
   766   609   613 1
   767   611   652 1
   768   615   619 1
   769   611   615 1
   770   615   622 1
   771   611   649 1
   772   614   618 1
   773   614   624 1
   774   629   670 1
   775   629   689 1
   776   629   663 1
   777   630   664 1
   778   630   692 1
   779   630   669 1
   780   637   640 1
   781   679   694 1
   782   682   699 1
   783   680   696 1
   784   687   691 1
   785   706   714 1
   786   706   717 1
   787   681   695 1
   788   691   695 1
   789   706   712 1
   790   691   697 1
   791   683   700 1
   792   693   700 1
   793   686   693 1
   794   689   693 1
   795   689   699 1
   796   684   698 1
   797   698  1460 1
   798  1351  1432 1
   799  1398  1432 1
   800  1398  1460 1
   801  1351  1426 1
   802  1351  1416 1
   803  1351  1424 1
   804  1398  1437 1
   805  1351  1444 1
   806   685   690 1
   807   690   694 1
   808   690   700 1
   809   694   699 1
   810   688   697 1
   811   697  1464 1
   812   720   734 1
   813   725   734 1
   814   734   766 1
   815   722   731 1
   816   722   756 1
   817   722   765 1
   818   756   762 1
   819   742   749 1
   820   742   753 1
   821   735   738 1
   822   735   739 1
   823   736   738 1
   824   736   741 1
   825   736   742 1
   826   738   745 1
   827   739   741 1
   828   742   748 1
   829   741   751 1
   830   735   737 1
   831   739   747 1
   832   737   740 1
   833   737   744 1
   834   737   743 1
   835   740   752 1
   836   740   746 1
   837   740   750 1
   838   758   768 1
   839   759   767 1
   840   760   768 1
   841   965  1052 1
   842   769   775 1
   843   769   850 1
   844   965  1046 1
   845   769   846 1
   846   769   848 1
   847   769   864 1
   848   769   866 1
   849   769   870 1
   850   769   965 1
   851   870   965 1
   852   965  1050 1
   853   965  1034 1
   854   965  1044 1
   855   866  1016 1
   856   770   847 1
   857   770   776 1
   858   770   865 1
   859   770   845 1
   860   770   849 1
   861   770   863 1
   862   770   869 1
   863   771   844 1
   864   771   851 1
   865   771   853 1
   866   771   861 1
   867   771   868 1
   868   794   868 1
   869   771   774 1
   870   772   854 1
   871   772   773 1
   872   772   843 1
   873   772   867 1
   874   793   867 1
   875   772   862 1
   876   772   852 1
   877   784   869 1
   878   773   854 1
   879   773   842 1
   880   773   858 1
   881   773   860 1
   882   824   858 1
   883   773   852 1
   884   774   851 1
   885   774   853 1
   886   774  1061 1
   887   774   857 1
   888   774   841 1
   889   774   859 1
   890   825   859 1
   891   825  1055 1
   892   774   962 1
   893   822   884 1
   894   775   850 1
   895   775   856 1
   896   822   856 1
   897   775   840 1
   898   775   848 1
   899   775   868 1
   900   822   861 1
   901   776   847 1
   902   821   881 1
   903   776   867 1
   904   776   855 1
   905   821   855 1
   906   821   862 1
   907   776   849 1
   908   776   839 1
   909   777   828 1
   910   827   834 1
   911   778   827 1
   912   817   827 1
   913   787   816 1
   914   779   830 1
   915   807   814 1
   916   800   838 1
   917   807   811 1
   918   811   838 1
   919   781   833 1
   920   782   832 1
   921   783   870 1
   922   785   814 1
   923   808   812 1
   924   804   842 1
   925   786   813 1
   926   804   808 1
   927   804   843 1
   928   808   813 1
   929   813  1195 1
   930   788   815 1
   931   789   810 1
   932   790   812 1
   933   812  1198 1
   934   818   824 1
   935   791  1219 1
   936   818  1218 1
   937  1176  1219 1
   938  1211  1218 1
   939  1218  1219 1
   940   792   835 1
   941   834   835 1
   942   795   836 1
   943   803   844 1
   944   803   807 1
   945   803   841 1
   946   796   836 1
   947   797   837 1
   948   801   805 1
   949   801   845 1
   950   801   839 1
   951   798   837 1
   952   799   838 1
   953   914   923 1
   954   914   948 1
   955   914   957 1
   956   806   816 1
   957   806   810 1
   958   802   806 1
   959   802   840 1
   960   802   846 1
   961   805   809 1
   962   809   837 1
   963   805   815 1
   964   819   825 1
   965   831   836 1
   966   819   831 1
   967   820   826 1
   968   820   830 1
   969   820  1024 1
   970   826  1052 1
   971   826   864 1
   972  1019  1026 1
   973   823   857 1
   974   823  1009 1
   975   823  1057 1
   976   833  1009 1
   977  1009  1019 1
   978  1016  1050 1
   979   828  1010 1
   980  1010  1016 1
   981  1010  1410 1
   982  1410  1411 1
   983   828  1217 1
   984   927   930 1
   985   929   932 1
   986   927   929 1
   987   929   935 1
   988   929   936 1
   989   927   931 1
   990   893   895 1
   991   893   898 1
   992   893   899 1
   993   898   906 1
   994   898   909 1
   995   898   904 1
   996   899   910 1
   997   886   891 1
   998   871   886 1
   999   873   887 1
  1000   879   883 1
  1001   883   887 1
  1002   887  1274 1
  1003   883   889 1
  1004   931   933 1
  1005   881   885 1
  1006   931   939 1
  1007   874   891 1
  1008   881   891 1
  1009   875   892 1
  1010   877   882 1
  1011   882   892 1
  1012   882   886 1
  1013   876   890 1
  1014   885   892 1
  1015   878   885 1
  1016   880   889 1
  1017   894   896 1
  1018   894  1091 1
  1019   896   902 1
  1020   896  1087 1
  1021  1085  1087 1
  1022  1085  1091 1
  1023  1085  1090 1
  1024  1091  1102 1
  1025   894   900 1
  1026   900   908 1
  1027   897   903 1
  1028   897   900 1
  1029   897   905 1
  1030   897   907 1
  1031   900   911 1
  1032   901  1087 1
  1033   912   926 1
  1034   912  1117 1
  1035   916   925 1
  1036   913   946 1
  1037   913   919 1
  1038   930   937 1
  1039   917   926 1
  1040   926  1332 1
  1041   926   958 1
  1042   948   954 1
  1043   922   947 1
  1044   925   955 1
  1045   925  1299 1
  1046   928   930 1
  1047   928   933 1
  1048   928   934 1
  1049   933   943 1
  1050   934   940 1
  1051   934   941 1
  1052   934   945 1
  1053   932   938 1
  1054   932   942 1
  1055   932   944 1
  1056   959  1138 1
  1057  1105  1138 1
  1058   951   959 1
  1059   959  1141 1
  1060  1105  1111 1
  1061  1331  1337 1
  1062   956  1331 1
  1063  1306  1331 1
  1064  1117  1147 1
  1065  1117  1491 1
  1066  1108  1117 1
  1067   961  1056 1
  1068   967  1048 1
  1069   967  1060 1
  1070   967  1032 1
  1071   961   967 1
  1072   961  1038 1
  1073   961  1040 1
  1074   961  1042 1
  1075   961  1062 1
  1076   967  1040 1
  1077   967  1042 1
  1078   975  1062 1
  1079   961  1058 1
  1080   962  1061 1
  1081   962   968 1
  1082   962  1039 1
  1083   962  1041 1
  1084   993  1031 1
  1085   962  1057 1
  1086   993   997 1
  1087   962  1055 1
  1088   962  1037 1
  1089   993  1037 1
  1090   963  1060 1
  1091   963  1036 1
  1092   963  1053 1
  1093   963   966 1
  1094   963  1043 1
  1095   963  1045 1
  1096   966  1043 1
  1097   966  1045 1
  1098   966  1049 1
  1099   966  1033 1
  1100   966  1051 1
  1101   964  1046 1
  1102   964  1054 1
  1103   964   965 1
  1104   964  1035 1
  1105   964  1044 1
  1106   964  1059 1
  1107   968  1031 1
  1108   968  1039 1
  1109   968  1041 1
  1110   968  1047 1
  1111   968  1059 1
  1112   985  1059 1
  1113   969  1020 1
  1114  1020  1409 1
  1115   970  1019 1
  1116   980  1007 1
  1117   971  1022 1
  1118  1012  1018 1
  1119  1012  1022 1
  1120  1018  1056 1
  1121   973  1025 1
  1122   991  1030 1
  1123   992  1030 1
  1124   974  1024 1
  1125   982  1004 1
  1126  1004  1390 1
  1127   976  1061 1
  1128   995  1036 1
  1129   999  1003 1
  1130   977  1006 1
  1131   995   999 1
  1132   999  1006 1
  1133   995  1033 1
  1134  1000  1004 1
  1135  1005  1387 1
  1136   978  1005 1
  1137  1000  1005 1
  1138   981  1002 1
  1139   994   998 1
  1140   994  1032 1
  1141   994  1038 1
  1142   983  1411 1
  1143  1368  1411 1
  1144   984  1027 1
  1145   986  1060 1
  1146  1086  1088 1
  1147  1086  1092 1
  1148  1092  1100 1
  1149  1092  1103 1
  1150  1088  1094 1
  1151   987  1028 1
  1152   988  1028 1
  1153  1011  1017 1
  1154  1011  1023 1
  1155   989  1029 1
  1156   990  1029 1
  1157   996  1034 1
  1158   996  1035 1
  1159   996  1000 1
  1160   997  1007 1
  1161   997  1001 1
  1162  1001  1029 1
  1163   998  1002 1
  1164   998  1008 1
  1165  1003  1030 1
  1166  1077  1084 1
  1167  1013  1054 1
  1168  1013  1073 1
  1169  1070  1077 1
  1170  1073  1077 1
  1171  1073  1083 1
  1172  1013  1047 1
  1173  1015  1049 1
  1174  1017  1051 1
  1175  1089  1092 1
  1176  1023  1028 1
  1177  1089  1095 1
  1178  1089  1097 1
  1179  1089  1099 1
  1180  1026  1027 1
  1181  1063  1078 1
  1182  1066  1083 1
  1183  1064  1080 1
  1184  1065  1079 1
  1185  1079  1466 1
  1186  1067  1084 1
  1187  1069  1074 1
  1188  1074  1078 1
  1189  1074  1084 1
  1190  1078  1083 1
  1191  1068  1082 1
  1192  1071  1075 1
  1193  1090  1098 1
  1194  1090  1101 1
  1195  1075  1079 1
  1196  1090  1096 1
  1197  1075  1081 1
  1198  1072  1081 1
  1199  1104  1118 1
  1200  1109  1118 1
  1201  1118  1150 1
  1202  1118  1524 1
  1203  1106  1115 1
  1204  1106  1140 1
  1205  1106  1149 1
  1206  1140  1146 1
  1207  1126  1133 1
  1208  1126  1137 1
  1209  1119  1122 1
  1210  1119  1123 1
  1211  1120  1122 1
  1212  1120  1125 1
  1213  1120  1126 1
  1214  1122  1129 1
  1215  1123  1125 1
  1216  1125  1135 1
  1217  1126  1132 1
  1218  1123  1131 1
  1219  1119  1121 1
  1220  1114  1139 1
  1221  1139  1145 1
  1222  1121  1124 1
  1223  1121  1128 1
  1224  1121  1127 1
  1225  1124  1136 1
  1226  1124  1130 1
  1227  1124  1134 1
  1228  1498  1523 1
  1229  1142  1152 1
  1230  1143  1151 1
  1231  1153  1234 1
  1232  1349  1430 1
  1233  1153  1230 1
  1234  1153  1248 1
  1235  1153  1250 1
  1236  1153  1254 1
  1237  1153  1349 1
  1238  1210  1248 1
  1239  1210  1436 1
  1240  1250  1400 1
  1241  1254  1349 1
  1242  1349  1434 1
  1243  1349  1436 1
  1244  1400  1434 1
  1245  1349  1418 1
  1246  1153  1159 1
  1247  1153  1232 1
  1248  1349  1428 1
  1249  1154  1229 1
  1250  1154  1231 1
  1251  1154  1249 1
  1252  1154  1233 1
  1253  1154  1253 1
  1254  1168  1253 1
  1255  1154  1160 1
  1256  1154  1247 1
  1257  1159  1234 1
  1258  1159  1224 1
  1259  1206  1268 1
  1260  1155  1235 1
  1261  1155  1245 1
  1262  1155  1252 1
  1263  1159  1240 1
  1264  1159  1252 1
  1265  1178  1252 1
  1266  1206  1240 1
  1267  1206  1245 1
  1268  1159  1232 1
  1269  1155  1228 1
  1270  1155  1237 1
  1271  1155  1158 1
  1272  1156  1238 1
  1273  1156  1157 1
  1274  1156  1227 1
  1275  1156  1251 1
  1276  1177  1251 1
  1277  1156  1246 1
  1278  1156  1236 1
  1279  1157  1238 1
  1280  1157  1226 1
  1281  1157  1244 1
  1282  1157  1236 1
  1283  1157  1242 1
  1284  1158  1235 1
  1285  1158  1241 1
  1286  1158  1225 1
  1287  1158  1237 1
  1288  1158  1243 1
  1289  1158  1445 1
  1290  1209  1243 1
  1291  1209  1439 1
  1292  1158  1346 1
  1293  1160  1251 1
  1294  1160  1239 1
  1295  1160  1231 1
  1296  1182  1221 1
  1297  1160  1233 1
  1298  1160  1223 1
  1299  1263  1267 1
  1300  1264  1273 1
  1301  1161  1212 1
  1302  1162  1211 1
  1303  1201  1211 1
  1304  1171  1200 1
  1305  1163  1214 1
  1306  1191  1198 1
  1307  1165  1217 1
  1308  1191  1195 1
  1309  1166  1216 1
  1310  1167  1254 1
  1311  1169  1198 1
  1312  1315  1323 1
  1313  1315  1317 1
  1314  1188  1226 1
  1315  1170  1197 1
  1316  1174  1196 1
  1317  1188  1192 1
  1318  1188  1227 1
  1319  1192  1196 1
  1320  1192  1197 1
  1321  1189  1193 1
  1322  1172  1199 1
  1323  1189  1199 1
  1324  1202  1208 1
  1325  1179  1220 1
  1326  1180  1220 1
  1327  1181  1221 1
  1328  1183  1222 1
  1329  1184  1222 1
  1330  1195  1222 1
  1331  1185  1229 1
  1332  1193  1221 1
  1333  1185  1223 1
  1334  1185  1189 1
  1335  1186  1190 1
  1336  1186  1224 1
  1337  1186  1230 1
  1338  1187  1191 1
  1339  1187  1225 1
  1340  1187  1228 1
  1341  1203  1209 1
  1342  1215  1220 1
  1343  1203  1215 1
  1344  1204  1214 1
  1345  1204  1408 1
  1346  1204  1210 1
  1347  1205  1265 1
  1348  1205  1239 1
  1349  1205  1246 1
  1350  1403  1410 1
  1351  1207  1241 1
  1352  1207  1393 1
  1353  1207  1441 1
  1354  1217  1393 1
  1355  1393  1403 1
  1356  1208  1242 1
  1357  1277  1279 1
  1358  1277  1282 1
  1359  1282  1288 1
  1360  1282  1290 1
  1361  1282  1293 1
  1362  1277  1283 1
  1363  1394  1400 1
  1364  1212  1394 1
  1365  1259  1276 1
  1366  1261  1266 1
  1367  1266  1276 1
  1368  1270  1275 1
  1369  1255  1270 1
  1370  1266  1270 1
  1371  1257  1271 1
  1372  1265  1269 1
  1373  1317  1327 1
  1374  1258  1275 1
  1375  1265  1275 1
  1376  1260  1274 1
  1377  1262  1269 1
  1378  1267  1271 1
  1379  1267  1273 1
  1380  1312  1318 1
  1381  1318  1324 1
  1382  1318  1325 1
  1383  1318  1329 1
  1384  1269  1276 1
  1385  1312  1314 1
  1386  1312  1317 1
  1387  1278  1280 1
  1388  1278  1475 1
  1389  1281  1287 1
  1390  1278  1284 1
  1391  1281  1284 1
  1392  1281  1289 1
  1393  1281  1291 1
  1394  1284  1292 1
  1395  1284  1295 1
  1396  1492  1501 1
  1397  1280  1286 1
  1398  1280  1471 1
  1399  1469  1471 1
  1400  1469  1475 1
  1401  1469  1474 1
  1402  1475  1486 1
  1403  1283  1294 1
  1404  1300  1309 1
  1405  1285  1471 1
  1406  1296  1310 1
  1407  1296  1501 1
  1408  1501  1531 1
  1409  1298  1307 1
  1410  1298  1332 1
  1411  1298  1341 1
  1412  1301  1310 1
  1413  1310  1342 1
  1414  1313  1316 1
  1415  1311  1315 1
  1416  1311  1313 1
  1417  1311  1314 1
  1418  1313  1319 1
  1419  1313  1320 1
  1420  1314  1321 1
  1421  1309  1339 1
  1422  1316  1322 1
  1423  1316  1326 1
  1424  1316  1328 1
  1425  1332  1338 1
  1426  1334  1344 1
  1427  1336  1344 1
  1428  1335  1343 1
  1429  1343  1522 1
  1430  1343  1525 1
  1431  1489  1522 1
  1432  1489  1495 1
  1433  1345  1351 1
  1434  1345  1426 1
  1435  1345  1422 1
  1436  1345  1424 1
  1437  1345  1440 1
  1438  1345  1442 1
  1439  1345  1446 1
  1440  1346  1423 1
  1441  1346  1352 1
  1442  1346  1441 1
  1443  1377  1381 1
  1444  1346  1439 1
  1445  1346  1445 1
  1446  1346  1421 1
  1447  1346  1425 1
  1448  1377  1415 1
  1449  1377  1421 1
  1450  1347  1420 1
  1451  1347  1437 1
  1452  1347  1427 1
  1453  1347  1429 1
  1454  1347  1444 1
  1455  1370  1444 1
  1456  1347  1350 1
  1457  1348  1430 1
  1458  1348  1349 1
  1459  1348  1419 1
  1460  1352  1423 1
  1461  1397  1457 1
  1462  1348  1438 1
  1463  1348  1443 1
  1464  1352  1431 1
  1465  1352  1443 1
  1466  1369  1443 1
  1467  1397  1431 1
  1468  1397  1438 1
  1469  1348  1428 1
  1470  1352  1415 1
  1471  1352  1425 1
  1472  1350  1427 1
  1473  1350  1429 1
  1474  1350  1433 1
  1475  1350  1417 1
  1476  1350  1435 1
  1477  1401  1435 1
  1478  1372  1412 1
  1479  1353  1404 1
  1480  1354  1403 1
  1481  1355  1406 1
  1482  1396  1402 1
  1483  1396  1406 1
  1484  1402  1440 1
  1485  1376  1414 1
  1486  1357  1409 1
  1487  1358  1408 1
  1488  1366  1388 1
  1489  1359  1446 1
  1490  1360  1445 1
  1491  1379  1420 1
  1492  1379  1383 1
  1493  1361  1390 1
  1494  1379  1417 1
  1495  1362  1389 1
  1496  1363  1392 1
  1497  1364  1391 1
  1498  1382  1392 1
  1499  1365  1386 1
  1500  1378  1382 1
  1501  1378  1416 1
  1502  1382  1386 1
  1503  1378  1422 1
  1504  1395  1401 1
  1505  1371  1412 1
  1506  1395  1407 1
  1507  1407  1412 1
  1508  1373  1413 1
  1509  1374  1413 1
  1510  1375  1414 1
  1511  1490  1499 1
  1512  1490  1524 1
  1513  1524  1530 1
  1514  1490  1533 1
  1515  1384  1388 1
  1516  1380  1384 1
  1517  1380  1418 1
  1518  1380  1419 1
  1519  1384  1389 1
  1520  1381  1385 1
  1521  1385  1413 1
  1522  1381  1391 1
  1523  1383  1387 1
  1524  1387  1414 1
  1525  1383  1390 1
  1526  1399  1433 1
  1527  1503  1506 1
  1528  1507  1509 1
  1529  1505  1508 1
  1530  1507  1515 1
  1531  1505  1512 1
  1532  1503  1505 1
  1533  1503  1507 1
  1534  1505  1511 1
  1535  1455  1459 1
  1536  1474  1482 1
  1537  1474  1485 1
  1538  1449  1463 1
  1539  1459  1463 1
  1540  1474  1480 1
  1541  1459  1465 1
  1542  1457  1461 1
  1543  1447  1462 1
  1544  1450  1467 1
  1545  1457  1467 1
  1546  1462  1467 1
  1547  1448  1464 1
  1548  1451  1468 1
  1549  1453  1458 1
  1550  1458  1468 1
  1551  1458  1462 1
  1552  1452  1466 1
  1553  1461  1468 1
  1554  1454  1461 1
  1555  1456  1465 1
  1556  1470  1472 1
  1557  1472  1478 1
  1558  1470  1476 1
  1559  1473  1476 1
  1560  1473  1479 1
  1561  1473  1481 1
  1562  1473  1483 1
  1563  1476  1484 1
  1564  1476  1487 1
  1565  1488  1502 1
  1566  1493  1502 1
  1567  1502  1534 1
  1568  1504  1506 1
  1569  1504  1509 1
  1570  1504  1510 1
  1571  1506  1513 1
  1572  1510  1516 1
  1573  1510  1517 1
  1574  1510  1521 1
  1575  1509  1519 1
  1576  1508  1514 1
  1577  1508  1520 1
  1578  1508  1518 1
  1579  1526  1536 1
  1580  1527  1535 1
