@<TRIPOS>MOLECULE
frame0010
 1536 1602 0 0 0
SMALL
NO_CHARGES

@<TRIPOS>ATOM
      1 Ti1         -2.8554     2.2298    11.2464 Ti        1 MOL       0.0000
      2 Ti2          7.9750     5.1110     1.8816 Ti        1 MOL       0.0000
      3 Ti3          1.2412    -1.7064     9.4264 Ti        1 MOL       0.0000
      4 Ti4          2.7524     7.4557     3.6534 Ti        1 MOL       0.0000
      5 Ti5          1.7539     9.1340     1.7490 Ti        1 MOL       0.0000
      6 Ti6          3.1294    -1.9608    11.3798 Ti        1 MOL       0.0000
      7 Ti7         -1.9062     0.4939     9.3549 Ti        1 MOL       0.0000
      8 Ti8          5.9872     5.4135     3.7290 Ti        1 MOL       0.0000
      9 H1          -2.3536     6.1269    11.0269 H         1 MOL       0.0000
     10 H2           8.7838     1.2049     2.2023 H         1 MOL       0.0000
     11 H3          -6.8153     1.4731    10.8640 H         1 MOL       0.0000
     12 H4          11.3572     7.1153     2.0822 H         1 MOL       0.0000
     13 H5           4.1051    -5.9953    10.9939 H         1 MOL       0.0000
     14 H6          -2.3047     8.5441     2.0711 H         1 MOL       0.0000
     15 H7          -2.3867     0.4312    12.9709 H         1 MOL       0.0000
     16 H8           6.0995     4.8683     0.1817 H         1 MOL       0.0000
     17 H9           3.6394    -2.6279     5.8687 H         1 MOL       0.0000
     18 H10          1.0290     9.2927     7.2723 H         1 MOL       0.0000
     19 H11         -5.9789     3.8825     8.9990 H         1 MOL       0.0000
     20 H12         10.7298     3.0266     4.1876 H         1 MOL       0.0000
     21 H13         -3.6778     2.4351     5.6652 H         1 MOL       0.0000
     22 H14         -1.3462    10.9619     4.1022 H         1 MOL       0.0000
     23 H15          2.1461    12.2368     2.6045 H         1 MOL       0.0000
     24 H16          8.6260    -0.8139     3.4048 H         1 MOL       0.0000
     25 H17          4.8451     7.1358     2.3148 H         1 MOL       0.0000
     26 H18          0.1606     0.1420    10.7200 H         1 MOL       0.0000
     27 H19          7.3642    -0.0259     9.7695 H         1 MOL       0.0000
     28 H20          5.8831    -0.4950    10.5168 H         1 MOL       0.0000
     29 H21          7.9383     4.4077     8.6706 H         1 MOL       0.0000
     30 H22          7.3686     4.7663     7.0520 H         1 MOL       0.0000
     31 H23          6.8754    -4.9808     9.5794 H         1 MOL       0.0000
     32 H24          5.5962    -3.8802    10.0368 H         1 MOL       0.0000
     33 C1           8.5531     4.3697     4.7451 C         1 MOL       0.0000
     34 C2          -3.8160     2.4911     8.3994 C         1 MOL       0.0000
     35 C3           3.8218    -2.7171     8.5017 C         1 MOL       0.0000
     36 C4           0.8163     9.4262     4.6128 C         1 MOL       0.0000
     37 C5           9.4491     3.7654     5.7403 C         1 MOL       0.0000
     38 C6          -4.7479     3.1162     7.4223 C         1 MOL       0.0000
     39 C7           4.7619    -3.3315     7.5545 C         1 MOL       0.0000
     40 C8          -0.0735    10.0730     5.6125 C         1 MOL       0.0000
     41 C9           9.2003     3.8403     7.1467 C         1 MOL       0.0000
     42 C10         -4.5315     2.9962     6.0343 C         1 MOL       0.0000
     43 C11          5.8914    -4.0918     8.0076 C         1 MOL       0.0000
     44 C12         -1.1682    10.8460     5.1676 C         1 MOL       0.0000
     45 C13          0.1810     9.9023     6.9674 C         1 MOL       0.0000
     46 C14          4.5142    -3.1993     6.1706 C         1 MOL       0.0000
     47 C15         10.5828     3.0664     5.2646 C         1 MOL       0.0000
     48 C16         -5.8480     3.8086     7.9210 C         1 MOL       0.0000
     49 C17          8.7648     1.2840     0.0582 C         1 MOL       0.0000
     50 C18          2.2951    13.0756     0.0832 C         1 MOL       0.0000
     51 C19          6.6143    -0.0189    13.0272 C         1 MOL       0.0000
     52 C20         -6.7440     1.5235    13.0078 C         1 MOL       0.0000
     53 C21          3.4992     5.1125     5.6180 C         1 MOL       0.0000
     54 C22         -1.2569    -1.9819     7.5361 C         1 MOL       0.0000
     55 C23          3.9940    -4.3272    13.1300 C         1 MOL       0.0000
     56 C24          2.2024    11.6421     0.0457 C         1 MOL       0.0000
     57 C25          5.3165    -0.6357    13.0740 C         1 MOL       0.0000
     58 C26         -5.3417     1.9379    13.0323 C         1 MOL       0.0000
     59 C27          8.8042     0.6149     1.2879 C         1 MOL       0.0000
     60 C28         -2.3426     6.7153    11.9408 C         1 MOL       0.0000
     61 C29         -4.0954     7.8789     1.0761 C         1 MOL       0.0000
     62 C30         -7.3768     1.2938    11.7793 C         1 MOL       0.0000
     63 C31          7.3089     0.2494    11.7938 C         1 MOL       0.0000
     64 C32         -2.8062     8.3591     1.1253 C         1 MOL       0.0000
     65 C33          4.1467    -6.5225    11.9429 C         1 MOL       0.0000
     66 C34          8.8259    -0.7862     1.3695 C         1 MOL       0.0000
     67 N1           8.8810    -1.3851     2.6076 N         1 MOL       0.0000
     68 N2           6.7299     0.0665    10.5548 N         1 MOL       0.0000
     69 N3           8.1195     4.4866     7.6780 N         1 MOL       0.0000
     70 N4           6.2224    -4.2500     9.3250 N         1 MOL       0.0000
     71 O1           7.3768     4.7748     5.1109 O         1 MOL       0.0000
     72 O2          -3.0470     1.5403     8.0011 O         1 MOL       0.0000
     73 O3           4.2032    -2.5927     9.7228 O         1 MOL       0.0000
     74 O4           0.7505     9.8559     3.4131 O         1 MOL       0.0000
     75 O5           1.5868     8.4690     4.9992 O         1 MOL       0.0000
     76 O6           2.6513    -2.3487     8.0962 O         1 MOL       0.0000
     77 O7           8.9650     4.4505     3.5334 O         1 MOL       0.0000
     78 O8          -3.8580     2.9274     9.5991 O         1 MOL       0.0000
     79 O9           6.2924     4.1956     2.5344 O         1 MOL       0.0000
     80 O10         -1.3538     2.0542    10.0994 O         1 MOL       0.0000
     81 O11          7.2312     6.4829     2.9843 O         1 MOL       0.0000
     82 O12         -3.1060     0.3295    10.5921 O         1 MOL       0.0000
     83 O13          1.5006    -2.8784    10.6868 O         1 MOL       0.0000
     84 O14          3.2690     9.0170     2.9149 O         1 MOL       0.0000
     85 O15          2.4545    -0.6169    10.2227 O         1 MOL       0.0000
     86 O16          1.5628     7.2599     2.3975 O         1 MOL       0.0000
     87 O17          4.7203     4.9326     5.2637 O         1 MOL       0.0000
     88 O18         -1.9146    -0.9469     7.9143 O         1 MOL       0.0000
     89 O19          3.8718    -3.7326    11.9889 O         1 MOL       0.0000
     90 O20          2.1193    10.9406     1.1409 O         1 MOL       0.0000
     91 O21          4.6739    -0.9445    11.9838 O         1 MOL       0.0000
     92 O22         -0.1167     9.1049     1.0808 O         1 MOL       0.0000
     93 O23         -0.0951    -2.2764     7.9939 O         1 MOL       0.0000
     94 O24          2.7573     6.0334     5.1246 O         1 MOL       0.0000
     95 O25          9.4121     6.1301     1.1270 O         1 MOL       0.0000
     96 O26         -4.7422     2.1697    11.9148 O         1 MOL       0.0000
     97 O27          8.6166     3.3758     1.1564 O         1 MOL       0.0000
     98 O28         -2.4740     3.9521    11.9961 O         1 MOL       0.0000
     99 O29          4.4842     6.5871     3.0354 O         1 MOL       0.0000
    100 O30         -0.2177    -0.4167    10.0165 O         1 MOL       0.0000
    101 O31          6.9383     5.3620     0.1026 O         1 MOL       0.0000
    102 O32         -2.2643     1.3980    13.0309 O         1 MOL       0.0000
    103 H25          3.7043     1.4683     8.5253 H         1 MOL       0.0000
    104 H26         -6.6026    10.6116     6.1138 H         1 MOL       0.0000
    105 H27          4.4555    10.2098     5.5994 H         1 MOL       0.0000
    106 H28          4.6983     3.0072     6.8095 H         1 MOL       0.0000
    107 H29          0.0430     3.7274     8.4245 H         1 MOL       0.0000
    108 H30         12.1290    -2.6565     7.0187 H         1 MOL       0.0000
    109 H31          1.3749     1.8313     9.2926 H         1 MOL       0.0000
    110 H32          1.0464     5.2773     6.7209 H         1 MOL       0.0000
    111 H33          5.7925     8.4411     4.4784 H         1 MOL       0.0000
    112 H34          8.2492     8.3454     4.7688 H         1 MOL       0.0000
    113 C35          2.9251     4.2226     6.6568 C         1 MOL       0.0000
    114 C36          1.8152     2.5078     8.5614 C         1 MOL       0.0000
    115 C37          6.2888     9.1692     5.1194 C         1 MOL       0.0000
    116 C38         -1.9161    -2.9663     6.6494 C         1 MOL       0.0000
    117 C39          1.6124     4.4359     7.1140 C         1 MOL       0.0000
    118 C40          3.1301     2.3029     8.1268 C         1 MOL       0.0000
    119 C41          5.5356    10.1781     5.7317 C         1 MOL       0.0000
    120 C42         -7.6834    10.6220     5.9904 C         1 MOL       0.0000
    121 C43          7.6757     9.1121     5.2867 C         1 MOL       0.0000
    122 C44         12.6913    -3.4616     6.5521 C         1 MOL       0.0000
    123 C45          3.6848     3.1575     7.1737 C         1 MOL       0.0000
    124 C46          1.0587     3.5753     8.0629 C         1 MOL       0.0000
    125 N5           5.2760    10.6145     1.2472 N         1 MOL       0.0000
    126 N6           2.0744     2.7077    12.8890 N         1 MOL       0.0000
    127 C47          5.1578    11.3267     0.0481 C         1 MOL       0.0000
    128 C48          1.3715     3.6939    12.2271 C         1 MOL       0.0000
    129 C49          4.3888     2.7100    11.8724 C         1 MOL       0.0000
    130 C50          4.8125    11.1341     2.5736 C         1 MOL       0.0000
    131 C51          6.2994     9.7401     1.0840 C         1 MOL       0.0000
    132 C52          3.1611     1.9028    12.2889 C         1 MOL       0.0000
    133 H35          0.0076     5.2087    13.0685 H         1 MOL       0.0000
    134 H36          1.5420     3.9317    11.1802 H         1 MOL       0.0000
    135 H37          4.1381     3.4988    11.1496 H         1 MOL       0.0000
    136 H38          4.4485    12.1541     2.4366 H         1 MOL       0.0000
    137 H39          4.8741     3.1914    12.7288 H         1 MOL       0.0000
    138 H40          4.0305    10.4990     2.9620 H         1 MOL       0.0000
    139 H41          5.1017     2.0351    11.3785 H         1 MOL       0.0000
    140 H42          2.7254     1.3780    11.4289 H         1 MOL       0.0000
    141 H43          5.6501    11.1422     3.2769 H         1 MOL       0.0000
    142 H44          6.8300     9.2300     1.8759 H         1 MOL       0.0000
    143 H45          3.4066     1.1415    13.0354 H         1 MOL       0.0000
    144 N7           6.7473    13.9132     0.0762 N         1 MOL       0.0000
    145 C53          0.3556     0.5243     1.7075 C         1 MOL       0.0000
    146 C54          9.6518    -5.7205    10.8542 C         1 MOL       0.0000
    147 O33         13.7594    -0.4271     2.6122 O         1 MOL       0.0000
    148 O34          8.6228    11.5567     1.3969 O         1 MOL       0.0000
    149 O35          1.2336     6.4160    10.9095 O         1 MOL       0.0000
    150 O36          3.9477     6.2850     9.8114 O         1 MOL       0.0000
    151 F1          -0.0243     1.9941     2.1928 F         1 MOL       0.0000
    152 F2          10.0709    -3.9661    11.8816 F         1 MOL       0.0000
    153 F3           1.9279     1.3308     0.9968 F         1 MOL       0.0000
    154 F4          -0.2628    -0.0526     3.7694 F         1 MOL       0.0000
    155 F5           8.5490    -4.8854    10.3989 F         1 MOL       0.0000
    156 F6           2.5641     8.0702     8.8969 F         1 MOL       0.0000
    157 S1           7.8083    13.2144     1.3126 S         1 MOL       0.0000
    158 S2           2.5977     6.7877    11.2789 S         1 MOL       0.0000
    159 N8           3.1404     1.5488     3.2468 N         1 MOL       0.0000
    160 N9           1.3040     2.3196     4.2369 N         1 MOL       0.0000
    161 C55          4.0913     1.1403     2.1445 C         1 MOL       0.0000
    162 C56          2.0757     2.3446     3.1236 C         1 MOL       0.0000
    163 C57          2.9853     0.8421     4.4511 C         1 MOL       0.0000
    164 C58          3.9468    -0.2379     1.4441 C         1 MOL       0.0000
    165 C59          1.8522     1.3186     5.0514 C         1 MOL       0.0000
    166 C60         -0.1467     2.6958     4.3913 C         1 MOL       0.0000
    167 H46          5.0858     1.2216     2.5967 H         1 MOL       0.0000
    168 H47          4.0097     1.9417     1.4002 H         1 MOL       0.0000
    169 H48          1.8890     2.9711     2.2459 H         1 MOL       0.0000
    170 H49          4.8661    -0.4212     0.8641 H         1 MOL       0.0000
    171 H50          3.7345     0.1524     4.8072 H         1 MOL       0.0000
    172 H51         -0.2970     3.2579     5.3129 H         1 MOL       0.0000
    173 H52         -0.4939     3.2753     3.5315 H         1 MOL       0.0000
    174 H53          3.8019    -1.0571     2.1537 H         1 MOL       0.0000
    175 H54          1.3643     1.0421     5.9716 H         1 MOL       0.0000
    176 H55          3.1039    -0.2715     0.7468 H         1 MOL       0.0000
    177 H56         -0.7176     1.7521     4.3766 H         1 MOL       0.0000
    178 N10         -0.6311     0.5421     0.9921 N         1 MOL       0.0000
    179 C61         14.4724    -1.7876     3.4883 C         1 MOL       0.0000
    180 C62          9.5217    -6.5342    12.2354 C         1 MOL       0.0000
    181 O37          0.6819     3.0968     0.2373 O         1 MOL       0.0000
    182 O38         -5.0609    12.9427     2.5677 O         1 MOL       0.0000
    183 O39         -3.6963    -6.1830    11.9956 O         1 MOL       0.0000
    184 O40         -5.6397    12.9940     0.0642 O         1 MOL       0.0000
    185 F7          -2.2605    -0.8054     4.5088 F         1 MOL       0.0000
    186 F8           8.0389    -5.9896    12.8597 F         1 MOL       0.0000
    187 F9           6.5898    12.2182     1.9863 F         1 MOL       0.0000
    188 F10          7.9659    11.4111     3.7009 F         1 MOL       0.0000
    189 F11         10.6213    -5.9804    10.6287 F         1 MOL       0.0000
    190 F12          3.3506     5.8679    11.7803 F         1 MOL       0.0000
    191 S3          -4.4073    -5.2901    12.8881 S         1 MOL       0.0000
    192 S4          -6.0062    13.3454     1.5709 S         1 MOL       0.0000
    193 Ti9         -7.4904    -4.8362    24.3414 Ti        1 MOL       0.0000
    194 Ti10         3.3400    -1.9550    14.9766 Ti        1 MOL       0.0000
    195 Ti11        -3.3938    -8.7724    22.5214 Ti        1 MOL       0.0000
    196 Ti12        -1.8826     0.3897    16.7484 Ti        1 MOL       0.0000
    197 Ti13        -2.8811     2.0680    14.8440 Ti        1 MOL       0.0000
    198 Ti14        -1.5056    -9.0268    24.4748 Ti        1 MOL       0.0000
    199 Ti15        -6.5412    -6.5721    22.4499 Ti        1 MOL       0.0000
    200 Ti16         1.3522    -1.6525    16.8240 Ti        1 MOL       0.0000
    201 H57         -6.9886    -0.9391    24.1219 H         1 MOL       0.0000
    202 H58          4.1488    -5.8611    15.2973 H         1 MOL       0.0000
    203 H59        -11.4503    -5.5929    23.9590 H         1 MOL       0.0000
    204 H60          6.7222     0.0493    15.1772 H         1 MOL       0.0000
    205 H61         -0.5299   -13.0613    24.0889 H         1 MOL       0.0000
    206 H62         -6.9397     1.4781    15.1661 H         1 MOL       0.0000
    207 H63         -7.0217    -6.6348    26.0659 H         1 MOL       0.0000
    208 H64          1.4645    -2.1977    13.2767 H         1 MOL       0.0000
    209 H65         -0.9956    -9.6939    18.9637 H         1 MOL       0.0000
    210 H66         -3.6060     2.2267    20.3673 H         1 MOL       0.0000
    211 H67        -10.6139    -3.1835    22.0940 H         1 MOL       0.0000
    212 H68          6.0948    -4.0393    17.2826 H         1 MOL       0.0000
    213 H69         -8.3127    -4.6309    18.7602 H         1 MOL       0.0000
    214 H70         -5.9812     3.8959    17.1972 H         1 MOL       0.0000
    215 H71         -2.4889     5.1708    15.6995 H         1 MOL       0.0000
    216 H72          3.9910    -7.8799    16.4998 H         1 MOL       0.0000
    217 H73          0.2101     0.0698    15.4098 H         1 MOL       0.0000
    218 H74         -4.4744    -6.9240    23.8150 H         1 MOL       0.0000
    219 H75          2.7292    -7.0919    22.8645 H         1 MOL       0.0000
    220 H76          1.2481    -7.5610    23.6118 H         1 MOL       0.0000
    221 H77          3.3033    -2.6583    21.7655 H         1 MOL       0.0000
    222 H78          2.7336    -2.2997    20.1470 H         1 MOL       0.0000
    223 H79          2.2404   -12.0468    22.6744 H         1 MOL       0.0000
    224 H80          0.9612   -10.9462    23.1318 H         1 MOL       0.0000
    225 C63          3.9181    -2.6963    17.8401 C         1 MOL       0.0000
    226 C64         -8.4510    -4.5749    21.4944 C         1 MOL       0.0000
    227 C65         -0.8132    -9.7831    21.5967 C         1 MOL       0.0000
    228 C66         -3.8187     2.3602    17.7078 C         1 MOL       0.0000
    229 C67          4.8141    -3.3006    18.8353 C         1 MOL       0.0000
    230 C68         -9.3829    -3.9498    20.5173 C         1 MOL       0.0000
    231 C69          0.1269   -10.3975    20.6495 C         1 MOL       0.0000
    232 C70         -4.7085     3.0070    18.7075 C         1 MOL       0.0000
    233 C71          4.5653    -3.2257    20.2417 C         1 MOL       0.0000
    234 C72         -9.1665    -4.0698    19.1293 C         1 MOL       0.0000
    235 C73          1.2564   -11.1578    21.1026 C         1 MOL       0.0000
    236 C74         -5.8032     3.7800    18.2626 C         1 MOL       0.0000
    237 C75         -4.4540     2.8362    20.0624 C         1 MOL       0.0000
    238 C76         -0.1208   -10.2653    19.2656 C         1 MOL       0.0000
    239 C77          5.9478    -3.9996    18.3596 C         1 MOL       0.0000
    240 C78        -10.4831    -3.2574    21.0160 C         1 MOL       0.0000
    241 C79          4.1298    -5.7820    13.1532 C         1 MOL       0.0000
    242 C80         -2.3399     6.0096    13.1782 C         1 MOL       0.0000
    243 C81          1.9793    -7.0849    26.1222 C         1 MOL       0.0000
    244 C82        -11.3790    -5.5425    26.1028 C         1 MOL       0.0000
    245 C83         -1.1358    -1.9535    18.7130 C         1 MOL       0.0000
    246 C84         -5.8919    -9.0479    20.6311 C         1 MOL       0.0000
    247 C85         -0.6410   -11.3932    26.2250 C         1 MOL       0.0000
    248 C86         -2.4326     4.5761    13.1407 C         1 MOL       0.0000
    249 C87          0.6815    -7.7017    26.1690 C         1 MOL       0.0000
    250 C88         -9.9767    -5.1281    26.1273 C         1 MOL       0.0000
    251 C89          4.1692    -6.4511    14.3829 C         1 MOL       0.0000
    252 C90         -6.9776    -0.3507    25.0358 C         1 MOL       0.0000
    253 C91         -8.7304     0.8129    14.1711 C         1 MOL       0.0000
    254 C92        -12.0118    -5.7722    24.8743 C         1 MOL       0.0000
    255 C93          2.6739    -6.8166    24.8888 C         1 MOL       0.0000
    256 C94         -7.4412     1.2931    14.2203 C         1 MOL       0.0000
    257 C95         -0.4883   -13.5885    25.0379 C         1 MOL       0.0000
    258 C96          4.1909    -7.8522    14.4645 C         1 MOL       0.0000
    259 N11          4.2460    -8.4511    15.7026 N         1 MOL       0.0000
    260 N12          2.0949    -6.9995    23.6498 N         1 MOL       0.0000
    261 N13          3.4845    -2.5794    20.7730 N         1 MOL       0.0000
    262 N14          1.5874   -11.3160    22.4200 N         1 MOL       0.0000
    263 O41          2.7418    -2.2912    18.2059 O         1 MOL       0.0000
    264 O42         -7.6820    -5.5257    21.0961 O         1 MOL       0.0000
    265 O43         -0.4318    -9.6587    22.8178 O         1 MOL       0.0000
    266 O44         -3.8845     2.7899    16.5082 O         1 MOL       0.0000
    267 O45         -3.0482     1.4030    18.0942 O         1 MOL       0.0000
    268 O46         -1.9837    -9.4147    21.1912 O         1 MOL       0.0000
    269 O47          4.3300    -2.6155    16.6284 O         1 MOL       0.0000
    270 O48         -8.4930    -4.1386    22.6941 O         1 MOL       0.0000
    271 O49          1.6574    -2.8704    15.6294 O         1 MOL       0.0000
    272 O50         -5.9888    -5.0118    23.1944 O         1 MOL       0.0000
    273 O51          2.5962    -0.5831    16.0793 O         1 MOL       0.0000
    274 O52         -7.7410    -6.7365    23.6871 O         1 MOL       0.0000
    275 O53         -3.1344    -9.9444    23.7818 O         1 MOL       0.0000
    276 O54         -1.3660     1.9510    16.0099 O         1 MOL       0.0000
    277 O55         -2.1805    -7.6829    23.3177 O         1 MOL       0.0000
    278 O56         -3.0722     0.1939    15.4925 O         1 MOL       0.0000
    279 O57          0.0853    -2.1334    18.3587 O         1 MOL       0.0000
    280 O58         -6.5496    -8.0129    21.0093 O         1 MOL       0.0000
    281 O59         -0.7632   -10.7986    25.0839 O         1 MOL       0.0000
    282 O60         -2.5157     3.8746    14.2359 O         1 MOL       0.0000
    283 O61          0.0389    -8.0105    25.0788 O         1 MOL       0.0000
    284 O62         -4.7517     2.0389    14.1758 O         1 MOL       0.0000
    285 O63         -4.7301    -9.3424    21.0889 O         1 MOL       0.0000
    286 O64         -1.8777    -1.0326    18.2196 O         1 MOL       0.0000
    287 O65          4.7771    -0.9359    14.2220 O         1 MOL       0.0000
    288 O66         -9.3772    -4.8963    25.0098 O         1 MOL       0.0000
    289 O67          3.9816    -3.6902    14.2514 O         1 MOL       0.0000
    290 O68         -7.1090    -3.1139    25.0911 O         1 MOL       0.0000
    291 O69         -0.1508    -0.4789    16.1304 O         1 MOL       0.0000
    292 O70         -4.8527    -7.4827    23.1115 O         1 MOL       0.0000
    293 O71          2.3033    -1.7041    13.1976 O         1 MOL       0.0000
    294 O72         -6.8993    -5.6680    26.1259 O         1 MOL       0.0000
    295 H81         -0.9307    -5.5977    21.6203 H         1 MOL       0.0000
    296 H82        -11.2376     3.5456    19.2088 H         1 MOL       0.0000
    297 H83         -0.1795     3.1438    18.6944 H         1 MOL       0.0000
    298 H84          0.0633    -4.0588    19.9045 H         1 MOL       0.0000
    299 H85         -4.5920    -3.3386    21.5195 H         1 MOL       0.0000
    300 H86          7.4940    -9.7225    20.1137 H         1 MOL       0.0000
    301 H87         -3.2601    -5.2347    22.3876 H         1 MOL       0.0000
    302 H88         -3.5886    -1.7887    19.8159 H         1 MOL       0.0000
    303 H89          1.1575     1.3751    17.5734 H         1 MOL       0.0000
    304 H90          3.6142     1.2794    17.8638 H         1 MOL       0.0000
    305 C97         -1.7099    -2.8434    19.7518 C         1 MOL       0.0000
    306 C98         -2.8198    -4.5582    21.6564 C         1 MOL       0.0000
    307 C99          1.6538     2.1032    18.2144 C         1 MOL       0.0000
    308 C100        -6.5511   -10.0323    19.7444 C         1 MOL       0.0000
    309 C101        -3.0226    -2.6301    20.2090 C         1 MOL       0.0000
    310 C102        -1.5049    -4.7631    21.2218 C         1 MOL       0.0000
    311 C103         0.9006     3.1121    18.8267 C         1 MOL       0.0000
    312 C104       -12.3184     3.5560    19.0854 C         1 MOL       0.0000
    313 C105         3.0407     2.0461    18.3817 C         1 MOL       0.0000
    314 C106         8.0563   -10.5276    19.6471 C         1 MOL       0.0000
    315 C107        -0.9502    -3.9085    20.2687 C         1 MOL       0.0000
    316 C108        -3.5763    -3.4907    21.1579 C         1 MOL       0.0000
    317 N15          0.6410     3.5485    14.3422 N         1 MOL       0.0000
    318 N16         -2.5606    -4.3583    25.9840 N         1 MOL       0.0000
    319 C109         0.5228     4.2607    13.1431 C         1 MOL       0.0000
    320 C110        -3.2635    -3.3721    25.3221 C         1 MOL       0.0000
    321 C111        -0.2462    -4.3560    24.9674 C         1 MOL       0.0000
    322 C112         0.1775     4.0681    15.6686 C         1 MOL       0.0000
    323 C113         1.6644     2.6741    14.1790 C         1 MOL       0.0000
    324 C114        -1.4739    -5.1632    25.3839 C         1 MOL       0.0000
    325 H91         -4.6274    -1.8573    26.1635 H         1 MOL       0.0000
    326 H92         -3.0930    -3.1343    24.2752 H         1 MOL       0.0000
    327 H93         -0.4969    -3.5672    24.2446 H         1 MOL       0.0000
    328 H94         -0.1865     5.0881    15.5316 H         1 MOL       0.0000
    329 H95          0.2391    -3.8746    25.8238 H         1 MOL       0.0000
    330 H96         -0.6045     3.4330    16.0570 H         1 MOL       0.0000
    331 H97          0.4667    -5.0309    24.4735 H         1 MOL       0.0000
    332 H98         -1.9096    -5.6880    24.5239 H         1 MOL       0.0000
    333 H99          1.0151     4.0762    16.3719 H         1 MOL       0.0000
    334 H100         2.1950     2.1640    14.9709 H         1 MOL       0.0000
    335 H101        -1.2284    -5.9245    26.1304 H         1 MOL       0.0000
    336 N17          2.1123     6.8472    13.1712 N         1 MOL       0.0000
    337 C115        -4.2794    -6.5417    14.8025 C         1 MOL       0.0000
    338 C116         5.0168   -12.7865    23.9492 C         1 MOL       0.0000
    339 O73          9.1244    -7.4931    15.7072 O         1 MOL       0.0000
    340 O74          3.9878     4.4907    14.4919 O         1 MOL       0.0000
    341 O75         -3.4014    -0.6500    24.0045 O         1 MOL       0.0000
    342 O76         -0.6873    -0.7810    22.9064 O         1 MOL       0.0000
    343 F13         -4.6593    -5.0719    15.2878 F         1 MOL       0.0000
    344 F14          5.4359   -11.0321    24.9766 F         1 MOL       0.0000
    345 F15         -2.7071    -5.7352    14.0918 F         1 MOL       0.0000
    346 F16         -4.8978    -7.1186    16.8644 F         1 MOL       0.0000
    347 F17          3.9140   -11.9514    23.4939 F         1 MOL       0.0000
    348 F18         -2.0709     1.0042    21.9919 F         1 MOL       0.0000
    349 S5           3.1733     6.1484    14.4076 S         1 MOL       0.0000
    350 S6          -2.0373    -0.2783    24.3739 S         1 MOL       0.0000
    351 N18         -1.4946    -5.5172    16.3418 N         1 MOL       0.0000
    352 N19         -3.3310    -4.7464    17.3319 N         1 MOL       0.0000
    353 C117        -0.5437    -5.9257    15.2395 C         1 MOL       0.0000
    354 C118        -2.5593    -4.7214    16.2186 C         1 MOL       0.0000
    355 C119        -1.6497    -6.2239    17.5461 C         1 MOL       0.0000
    356 C120        -0.6882    -7.3039    14.5391 C         1 MOL       0.0000
    357 C121        -2.7828    -5.7474    18.1464 C         1 MOL       0.0000
    358 C122        -4.7817    -4.3702    17.4863 C         1 MOL       0.0000
    359 H102         0.4508    -5.8444    15.6917 H         1 MOL       0.0000
    360 H103        -0.6253    -5.1243    14.4952 H         1 MOL       0.0000
    361 H104        -2.7460    -4.0949    15.3409 H         1 MOL       0.0000
    362 H105         0.2311    -7.4872    13.9591 H         1 MOL       0.0000
    363 H106        -0.9005    -6.9136    17.9022 H         1 MOL       0.0000
    364 H107        -4.9320    -3.8081    18.4079 H         1 MOL       0.0000
    365 H108        -5.1289    -3.7907    16.6265 H         1 MOL       0.0000
    366 H109        -0.8331    -8.1231    15.2487 H         1 MOL       0.0000
    367 H110        -3.2707    -6.0239    19.0666 H         1 MOL       0.0000
    368 H111        -1.5311    -7.3375    13.8418 H         1 MOL       0.0000
    369 H112        -5.3526    -5.3139    17.4716 H         1 MOL       0.0000
    370 N20         -5.2661    -6.5239    14.0871 N         1 MOL       0.0000
    371 C123         9.8374    -8.8536    16.5833 C         1 MOL       0.0000
    372 C124         4.8867   -13.6002    25.3304 C         1 MOL       0.0000
    373 O77         -3.9531    -3.9692    13.3323 O         1 MOL       0.0000
    374 O78         -9.6959     5.8767    15.6627 O         1 MOL       0.0000
    375 O79         -8.3313   -13.2490    25.0906 O         1 MOL       0.0000
    376 O80        -10.2747     5.9280    13.1592 O         1 MOL       0.0000
    377 F19         -6.8955    -7.8714    17.6038 F         1 MOL       0.0000
    378 F20          3.4039   -13.0556    25.9547 F         1 MOL       0.0000
    379 F21          1.9548     5.1522    15.0813 F         1 MOL       0.0000
    380 F22          3.3309     4.3451    16.7959 F         1 MOL       0.0000
    381 F23          5.9863   -13.0464    23.7237 F         1 MOL       0.0000
    382 F24         -1.2844    -1.1981    24.8753 F         1 MOL       0.0000
    383 S7          -9.0423   -12.3561    25.9831 S         1 MOL       0.0000
    384 S8         -10.6412     6.2794    14.6659 S         1 MOL       0.0000
    385 Ti17        -9.3724    16.8428    11.1894 Ti        1 MOL       0.0000
    386 Ti18         1.4580    19.7240     1.8246 Ti        1 MOL       0.0000
    387 Ti19        -5.2758    12.9066     9.3694 Ti        1 MOL       0.0000
    388 Ti20        -3.7646    22.0687     3.5964 Ti        1 MOL       0.0000
    389 Ti21        -4.7631    23.7470     1.6920 Ti        1 MOL       0.0000
    390 Ti22        -3.3876    12.6522    11.3228 Ti        1 MOL       0.0000
    391 Ti23        -8.4232    15.1069     9.2979 Ti        1 MOL       0.0000
    392 Ti24        -0.5298    20.0265     3.6721 Ti        1 MOL       0.0000
    393 H113        -8.8706    20.7399    10.9699 H         1 MOL       0.0000
    394 H114         2.2668    15.8179     2.1453 H         1 MOL       0.0000
    395 H115       -13.3323    16.0861    10.8070 H         1 MOL       0.0000
    396 H116         4.8402    21.7283     2.0252 H         1 MOL       0.0000
    397 H117        -2.4119     8.6177    10.9369 H         1 MOL       0.0000
    398 H118        -8.8217    23.1571     2.0141 H         1 MOL       0.0000
    399 H119        -8.9037    15.0442    12.9139 H         1 MOL       0.0000
    400 H120        -0.4175    19.4813     0.1247 H         1 MOL       0.0000
    401 H121        -2.8776    11.9851     5.8117 H         1 MOL       0.0000
    402 H122        -5.4880    23.9057     7.2153 H         1 MOL       0.0000
    403 H123       -12.4959    18.4955     8.9420 H         1 MOL       0.0000
    404 H124         4.2128    17.6396     4.1306 H         1 MOL       0.0000
    405 H125       -10.1948    17.0481     5.6082 H         1 MOL       0.0000
    406 H126        -7.8632    25.5749     4.0452 H         1 MOL       0.0000
    407 H127        -4.3709    26.8498     2.5475 H         1 MOL       0.0000
    408 H128         2.1090    13.7991     3.3478 H         1 MOL       0.0000
    409 H129        -1.6719    21.7488     2.2578 H         1 MOL       0.0000
    410 H130        -6.3565    14.7550    10.6630 H         1 MOL       0.0000
    411 H131         0.8472    14.5871     9.7125 H         1 MOL       0.0000
    412 H132        -0.6339    14.1180    10.4598 H         1 MOL       0.0000
    413 H133         1.4213    19.0207     8.6136 H         1 MOL       0.0000
    414 H134         0.8516    19.3793     6.9950 H         1 MOL       0.0000
    415 H135         0.3584     9.6322     9.5224 H         1 MOL       0.0000
    416 H136        -0.9208    10.7328     9.9798 H         1 MOL       0.0000
    417 C125         2.0361    18.9827     4.6881 C         1 MOL       0.0000
    418 C126       -10.3330    17.1042     8.3424 C         1 MOL       0.0000
    419 C127        -2.6952    11.8959     8.4447 C         1 MOL       0.0000
    420 C128        -5.7007    24.0392     4.5557 C         1 MOL       0.0000
    421 C129         2.9321    18.3784     5.6833 C         1 MOL       0.0000
    422 C130       -11.2649    17.7292     7.3653 C         1 MOL       0.0000
    423 C131        -1.7550    11.2815     7.4975 C         1 MOL       0.0000
    424 C132        -6.5905    24.6860     5.5555 C         1 MOL       0.0000
    425 C133         2.6833    18.4533     7.0897 C         1 MOL       0.0000
    426 C134       -11.0485    17.6092     5.9773 C         1 MOL       0.0000
    427 C135        -0.6256    10.5212     7.9506 C         1 MOL       0.0000
    428 C136        -7.6852    25.4590     5.1106 C         1 MOL       0.0000
    429 C137        -6.3360    24.5152     6.9104 C         1 MOL       0.0000
    430 C138        -2.0028    11.4136     6.1136 C         1 MOL       0.0000
    431 C139         4.0658    17.6794     5.2076 C         1 MOL       0.0000
    432 C140       -12.3651    18.4216     7.8640 C         1 MOL       0.0000
    433 C141         2.2478    15.8970     0.0012 C         1 MOL       0.0000
    434 C142        -4.2219    27.6886     0.0262 C         1 MOL       0.0000
    435 C143         0.0973    14.5941    12.9702 C         1 MOL       0.0000
    436 C144       -13.2610    16.1365    12.9508 C         1 MOL       0.0000
    437 C145        -3.0178    19.7255     5.5610 C         1 MOL       0.0000
    438 C146        -7.7739    12.6311     7.4791 C         1 MOL       0.0000
    439 C147        -2.5230    10.2858    13.0730 C         1 MOL       0.0000
    440 C148        -4.3146    26.2551    -0.0113 C         1 MOL       0.0000
    441 C149        -1.2006    13.9773    13.0170 C         1 MOL       0.0000
    442 C150       -11.8587    16.5509    12.9753 C         1 MOL       0.0000
    443 C151         2.2872    15.2279     1.2309 C         1 MOL       0.0000
    444 C152        -8.8596    21.3283    11.8838 C         1 MOL       0.0000
    445 C153       -10.6124    22.4919     1.0191 C         1 MOL       0.0000
    446 C154       -13.8938    15.9068    11.7223 C         1 MOL       0.0000
    447 C155         0.7919    14.8624    11.7368 C         1 MOL       0.0000
    448 C156        -9.3232    22.9721     1.0683 C         1 MOL       0.0000
    449 C157        -2.3703     8.0905    11.8859 C         1 MOL       0.0000
    450 C158         2.3089    13.8268     1.3125 C         1 MOL       0.0000
    451 N21          2.3640    13.2279     2.5506 N         1 MOL       0.0000
    452 N22          0.2129    14.6795    10.4978 N         1 MOL       0.0000
    453 N23          1.6025    19.0996     7.6210 N         1 MOL       0.0000
    454 N24         -0.2946    10.3630     9.2680 N         1 MOL       0.0000
    455 O81          0.8598    19.3878     5.0539 O         1 MOL       0.0000
    456 O82         -9.5640    16.1533     7.9441 O         1 MOL       0.0000
    457 O83         -2.3138    12.0203     9.6658 O         1 MOL       0.0000
    458 O84         -5.7665    24.4689     3.3561 O         1 MOL       0.0000
    459 O85         -4.9302    23.0820     4.9422 O         1 MOL       0.0000
    460 O86         -3.8657    12.2643     8.0392 O         1 MOL       0.0000
    461 O87          2.4480    19.0635     3.4764 O         1 MOL       0.0000
    462 O88        -10.3750    17.5404     9.5421 O         1 MOL       0.0000
    463 O89         -0.2246    18.8086     2.4774 O         1 MOL       0.0000
    464 O90         -7.8708    16.6672    10.0424 O         1 MOL       0.0000
    465 O91          0.7142    21.0959     2.9273 O         1 MOL       0.0000
    466 O92         -9.6230    14.9425    10.5351 O         1 MOL       0.0000
    467 O93         -5.0164    11.7346    10.6298 O         1 MOL       0.0000
    468 O94         -3.2480    23.6300     2.8579 O         1 MOL       0.0000
    469 O95         -4.0625    13.9961    10.1657 O         1 MOL       0.0000
    470 O96         -4.9542    21.8729     2.3405 O         1 MOL       0.0000
    471 O97         -1.7967    19.5457     5.2067 O         1 MOL       0.0000
    472 O98         -8.4316    13.6661     7.8573 O         1 MOL       0.0000
    473 O99         -2.6452    10.8804    11.9319 O         1 MOL       0.0000
    474 O100        -4.3977    25.5536     1.0839 O         1 MOL       0.0000
    475 O101        -1.8431    13.6685    11.9268 O         1 MOL       0.0000
    476 O102        -6.6337    23.7179     1.0238 O         1 MOL       0.0000
    477 O103        -6.6121    12.3366     7.9369 O         1 MOL       0.0000
    478 O104        -3.7597    20.6464     5.0676 O         1 MOL       0.0000
    479 O105         2.8951    20.7431     1.0700 O         1 MOL       0.0000
    480 O106       -11.2592    16.7827    11.8578 O         1 MOL       0.0000
    481 O107         2.0995    17.9888     1.0994 O         1 MOL       0.0000
    482 O108        -8.9910    18.5650    11.9391 O         1 MOL       0.0000
    483 O109        -2.0328    21.2001     2.9784 O         1 MOL       0.0000
    484 O110        -6.7347    14.1963     9.9595 O         1 MOL       0.0000
    485 O111         0.4213    19.9749     0.0456 O         1 MOL       0.0000
    486 O112        -8.7813    16.0110    12.9739 O         1 MOL       0.0000
    487 H137        -2.8127    16.0813     8.4683 H         1 MOL       0.0000
    488 H138       -13.1196    25.2246     6.0568 H         1 MOL       0.0000
    489 H139        -2.0615    24.8228     5.5424 H         1 MOL       0.0000
    490 H140        -1.8187    17.6202     6.7525 H         1 MOL       0.0000
    491 H141        -6.4740    18.3404     8.3675 H         1 MOL       0.0000
    492 H142         5.6120    11.9565     6.9617 H         1 MOL       0.0000
    493 H143        -5.1421    16.4443     9.2356 H         1 MOL       0.0000
    494 H144        -5.4706    19.8903     6.6639 H         1 MOL       0.0000
    495 H145        -0.7245    23.0541     4.4214 H         1 MOL       0.0000
    496 H146         1.7322    22.9584     4.7118 H         1 MOL       0.0000
    497 C159        -3.5919    18.8356     6.5998 C         1 MOL       0.0000
    498 C160        -4.7018    17.1208     8.5044 C         1 MOL       0.0000
    499 C161        -0.2282    23.7822     5.0624 C         1 MOL       0.0000
    500 C162        -8.4331    11.6467     6.5924 C         1 MOL       0.0000
    501 C163        -4.9046    19.0489     7.0570 C         1 MOL       0.0000
    502 C164        -3.3869    16.9159     8.0698 C         1 MOL       0.0000
    503 C165        -0.9814    24.7911     5.6747 C         1 MOL       0.0000
    504 C166       -14.2004    25.2350     5.9334 C         1 MOL       0.0000
    505 C167         1.1587    23.7251     5.2297 C         1 MOL       0.0000
    506 C168         6.1743    11.1514     6.4951 C         1 MOL       0.0000
    507 C169        -2.8322    17.7705     7.1167 C         1 MOL       0.0000
    508 C170        -5.4583    18.1883     8.0059 C         1 MOL       0.0000
    509 N25         -1.2410    25.2275     1.1902 N         1 MOL       0.0000
    510 N26         -4.4426    17.3207    12.8320 N         1 MOL       0.0000
    511 C171        -1.3592    25.9397    -0.0089 C         1 MOL       0.0000
    512 C172        -5.1455    18.3069    12.1701 C         1 MOL       0.0000
    513 C173        -2.1282    17.3230    11.8154 C         1 MOL       0.0000
    514 C174        -1.7045    25.7471     2.5166 C         1 MOL       0.0000
    515 C175        -0.2176    24.3531     1.0270 C         1 MOL       0.0000
    516 C176        -3.3559    16.5158    12.2319 C         1 MOL       0.0000
    517 H147        -6.5094    19.8217    13.0115 H         1 MOL       0.0000
    518 H148        -4.9750    18.5447    11.1232 H         1 MOL       0.0000
    519 H149        -2.3789    18.1118    11.0926 H         1 MOL       0.0000
    520 H150        -2.0685    26.7671     2.3796 H         1 MOL       0.0000
    521 H151        -1.6429    17.8044    12.6718 H         1 MOL       0.0000
    522 H152        -2.4865    25.1120     2.9050 H         1 MOL       0.0000
    523 H153        -1.4153    16.6481    11.3215 H         1 MOL       0.0000
    524 H154        -3.7916    15.9910    11.3719 H         1 MOL       0.0000
    525 H155        -0.8669    25.7552     3.2199 H         1 MOL       0.0000
    526 H156         0.3130    23.8430     1.8189 H         1 MOL       0.0000
    527 H157        -3.1104    15.7545    12.9784 H         1 MOL       0.0000
    528 N27          0.2303    28.5262     0.0192 N         1 MOL       0.0000
    529 C177        -6.1614    15.1373     1.6505 C         1 MOL       0.0000
    530 C178         3.1348     8.8925    10.7972 C         1 MOL       0.0000
    531 O113         7.2424    14.1859     2.5552 O         1 MOL       0.0000
    532 O114         2.1058    26.1697     1.3399 O         1 MOL       0.0000
    533 O115        -5.2834    21.0290    10.8525 O         1 MOL       0.0000
    534 O116        -2.5693    20.8980     9.7544 O         1 MOL       0.0000
    535 F25         -6.5413    16.6071     2.1358 F         1 MOL       0.0000
    536 F26          3.5539    10.6469    11.8246 F         1 MOL       0.0000
    537 F27         -4.5891    15.9438     0.9398 F         1 MOL       0.0000
    538 F28         -6.7798    14.5604     3.7124 F         1 MOL       0.0000
    539 F29          2.0320     9.7276    10.3419 F         1 MOL       0.0000
    540 F30         -3.9529    22.6832     8.8399 F         1 MOL       0.0000
    541 S9           1.2913    27.8274     1.2556 S         1 MOL       0.0000
    542 S10         -3.9193    21.4007    11.2219 S         1 MOL       0.0000
    543 N28         -3.3766    16.1618     3.1898 N         1 MOL       0.0000
    544 N29         -5.2130    16.9326     4.1799 N         1 MOL       0.0000
    545 C179        -2.4257    15.7533     2.0875 C         1 MOL       0.0000
    546 C180        -4.4413    16.9576     3.0666 C         1 MOL       0.0000
    547 C181        -3.5317    15.4551     4.3941 C         1 MOL       0.0000
    548 C182        -2.5702    14.3751     1.3871 C         1 MOL       0.0000
    549 C183        -4.6648    15.9316     4.9944 C         1 MOL       0.0000
    550 C184        -6.6637    17.3088     4.3343 C         1 MOL       0.0000
    551 H158        -1.4312    15.8346     2.5397 H         1 MOL       0.0000
    552 H159        -2.5073    16.5547     1.3432 H         1 MOL       0.0000
    553 H160        -4.6280    17.5841     2.1889 H         1 MOL       0.0000
    554 H161        -1.6509    14.1918     0.8071 H         1 MOL       0.0000
    555 H162        -2.7825    14.7654     4.7502 H         1 MOL       0.0000
    556 H163        -6.8140    17.8709     5.2559 H         1 MOL       0.0000
    557 H164        -7.0109    17.8883     3.4745 H         1 MOL       0.0000
    558 H165        -2.7151    13.5559     2.0967 H         1 MOL       0.0000
    559 H166        -5.1527    15.6551     5.9146 H         1 MOL       0.0000
    560 H167        -3.4131    14.3415     0.6898 H         1 MOL       0.0000
    561 H168        -7.2346    16.3651     4.3196 H         1 MOL       0.0000
    562 N30         -7.1481    15.1551     0.9351 N         1 MOL       0.0000
    563 C185         7.9554    12.8254     3.4313 C         1 MOL       0.0000
    564 C186         3.0047     8.0788    12.1784 C         1 MOL       0.0000
    565 O117        -5.8351    17.7098     0.1803 O         1 MOL       0.0000
    566 O118       -11.5779    27.5557     2.5107 O         1 MOL       0.0000
    567 O119       -10.2133     8.4300    11.9386 O         1 MOL       0.0000
    568 O120       -12.1567    27.6070     0.0072 O         1 MOL       0.0000
    569 F31         -8.7775    13.8076     4.4518 F         1 MOL       0.0000
    570 F32          1.5219     8.6234    12.8027 F         1 MOL       0.0000
    571 F33          0.0728    26.8312     1.9293 F         1 MOL       0.0000
    572 F34          1.4489    26.0241     3.6439 F         1 MOL       0.0000
    573 F35          4.1043     8.6326    10.5717 F         1 MOL       0.0000
    574 F36         -3.1664    20.4809    11.7233 F         1 MOL       0.0000
    575 S11        -10.9243     9.3229    12.8311 S         1 MOL       0.0000
    576 S12        -12.5232    27.9584     1.5139 S         1 MOL       0.0000
    577 Ti25       -14.0074     9.7768    24.2844 Ti        1 MOL       0.0000
    578 Ti26        -3.1770    12.6580    14.9196 Ti        1 MOL       0.0000
    579 Ti27        -9.9108     5.8406    22.4644 Ti        1 MOL       0.0000
    580 Ti28        -8.3996    15.0027    16.6914 Ti        1 MOL       0.0000
    581 Ti29        -9.3981    16.6810    14.7870 Ti        1 MOL       0.0000
    582 Ti30        -8.0226     5.5862    24.4178 Ti        1 MOL       0.0000
    583 Ti31       -13.0582     8.0409    22.3929 Ti        1 MOL       0.0000
    584 Ti32        -5.1648    12.9605    16.7671 Ti        1 MOL       0.0000
    585 H169       -13.5056    13.6739    24.0649 H         1 MOL       0.0000
    586 H170        -2.3682     8.7519    15.2403 H         1 MOL       0.0000
    587 H171       -17.9673     9.0201    23.9020 H         1 MOL       0.0000
    588 H172         0.2052    14.6623    15.1202 H         1 MOL       0.0000
    589 H173        -7.0469     1.5517    24.0319 H         1 MOL       0.0000
    590 H174       -13.4567    16.0911    15.1091 H         1 MOL       0.0000
    591 H175       -13.5387     7.9782    26.0089 H         1 MOL       0.0000
    592 H176        -5.0525    12.4153    13.2196 H         1 MOL       0.0000
    593 H177        -7.5126     4.9191    18.9067 H         1 MOL       0.0000
    594 H178       -10.1230    16.8397    20.3103 H         1 MOL       0.0000
    595 H179       -17.1309    11.4295    22.0370 H         1 MOL       0.0000
    596 H180        -0.4222    10.5736    17.2256 H         1 MOL       0.0000
    597 H181       -14.8298     9.9821    18.7032 H         1 MOL       0.0000
    598 H182       -12.4982    18.5089    17.1402 H         1 MOL       0.0000
    599 H183        -9.0059    19.7838    15.6425 H         1 MOL       0.0000
    600 H184        -2.5260     6.7331    16.4428 H         1 MOL       0.0000
    601 H185        -6.3069    14.6828    15.3528 H         1 MOL       0.0000
    602 H186       -10.9915     7.6890    23.7580 H         1 MOL       0.0000
    603 H187        -3.7878     7.5211    22.8075 H         1 MOL       0.0000
    604 H188        -5.2689     7.0520    23.5548 H         1 MOL       0.0000
    605 H189        -3.2137    11.9547    21.7085 H         1 MOL       0.0000
    606 H190        -3.7834    12.3133    20.0900 H         1 MOL       0.0000
    607 H191        -4.2766     2.5662    22.6174 H         1 MOL       0.0000
    608 H192        -5.5558     3.6668    23.0748 H         1 MOL       0.0000
    609 C187        -2.5989    11.9167    17.7831 C         1 MOL       0.0000
    610 C188       -14.9680    10.0381    21.4374 C         1 MOL       0.0000
    611 C189        -7.3302     4.8299    21.5397 C         1 MOL       0.0000
    612 C190       -10.3357    16.9732    17.6507 C         1 MOL       0.0000
    613 C191        -1.7029    11.3124    18.7783 C         1 MOL       0.0000
    614 C192       -15.8999    10.6632    20.4603 C         1 MOL       0.0000
    615 C193        -6.3900     4.2155    20.5925 C         1 MOL       0.0000
    616 C194       -11.2255    17.6200    18.6505 C         1 MOL       0.0000
    617 C195        -1.9517    11.3873    20.1847 C         1 MOL       0.0000
    618 C196       -15.6835    10.5432    19.0723 C         1 MOL       0.0000
    619 C197        -5.2606     3.4552    21.0456 C         1 MOL       0.0000
    620 C198       -12.3202    18.3930    18.2056 C         1 MOL       0.0000
    621 C199       -10.9710    17.4492    20.0054 C         1 MOL       0.0000
    622 C200        -6.6378     4.3476    19.2086 C         1 MOL       0.0000
    623 C201        -0.5692    10.6134    18.3026 C         1 MOL       0.0000
    624 C202       -17.0001    11.3556    20.9590 C         1 MOL       0.0000
    625 C203        -2.3872     8.8310    13.0962 C         1 MOL       0.0000
    626 C204        -8.8569    20.6226    13.1212 C         1 MOL       0.0000
    627 C205        -4.5377     7.5281    26.0652 C         1 MOL       0.0000
    628 C206       -17.8960     9.0705    26.0458 C         1 MOL       0.0000
    629 C207        -7.6528    12.6595    18.6560 C         1 MOL       0.0000
    630 C208       -12.4089     5.5651    20.5741 C         1 MOL       0.0000
    631 C209        -7.1580     3.2199    26.1680 C         1 MOL       0.0000
    632 C210        -8.9496    19.1891    13.0837 C         1 MOL       0.0000
    633 C211        -5.8355     6.9113    26.1120 C         1 MOL       0.0000
    634 C212       -16.4937     9.4849    26.0703 C         1 MOL       0.0000
    635 C213        -2.3478     8.1619    14.3259 C         1 MOL       0.0000
    636 C214       -13.4946    14.2623    24.9788 C         1 MOL       0.0000
    637 C215       -15.2474    15.4259    14.1141 C         1 MOL       0.0000
    638 C216       -18.5288     8.8408    24.8173 C         1 MOL       0.0000
    639 C217        -3.8431     7.7964    24.8318 C         1 MOL       0.0000
    640 C218       -13.9582    15.9061    14.1633 C         1 MOL       0.0000
    641 C219        -7.0053     1.0245    24.9809 C         1 MOL       0.0000
    642 C220        -2.3261     6.7608    14.4075 C         1 MOL       0.0000
    643 N31         -2.2710     6.1619    15.6456 N         1 MOL       0.0000
    644 N32         -4.4221     7.6135    23.5928 N         1 MOL       0.0000
    645 N33         -3.0325    12.0336    20.7160 N         1 MOL       0.0000
    646 N34         -4.9296     3.2970    22.3630 N         1 MOL       0.0000
    647 O121        -3.7752    12.3218    18.1489 O         1 MOL       0.0000
    648 O122       -14.1990     9.0873    21.0391 O         1 MOL       0.0000
    649 O123        -6.9488     4.9543    22.7608 O         1 MOL       0.0000
    650 O124       -10.4015    17.4029    16.4512 O         1 MOL       0.0000
    651 O125        -9.5652    16.0160    18.0372 O         1 MOL       0.0000
    652 O126        -8.5007     5.1983    21.1342 O         1 MOL       0.0000
    653 O127        -2.1870    11.9975    16.5714 O         1 MOL       0.0000
    654 O128       -15.0100    10.4744    22.6371 O         1 MOL       0.0000
    655 O129        -4.8596    11.7426    15.5724 O         1 MOL       0.0000
    656 O130       -12.5058     9.6012    23.1374 O         1 MOL       0.0000
    657 O131        -3.9208    14.0299    16.0223 O         1 MOL       0.0000
    658 O132       -14.2580     7.8765    23.6301 O         1 MOL       0.0000
    659 O133        -9.6515     4.6686    23.7248 O         1 MOL       0.0000
    660 O134        -7.8830    16.5640    15.9529 O         1 MOL       0.0000
    661 O135        -8.6975     6.9301    23.2607 O         1 MOL       0.0000
    662 O136        -9.5892    14.8069    15.4355 O         1 MOL       0.0000
    663 O137        -6.4317    12.4797    18.3017 O         1 MOL       0.0000
    664 O138       -13.0666     6.6001    20.9523 O         1 MOL       0.0000
    665 O139        -7.2802     3.8144    25.0269 O         1 MOL       0.0000
    666 O140        -9.0327    18.4876    14.1789 O         1 MOL       0.0000
    667 O141        -6.4781     6.6025    25.0218 O         1 MOL       0.0000
    668 O142       -11.2687    16.6519    14.1188 O         1 MOL       0.0000
    669 O143       -11.2471     5.2706    21.0319 O         1 MOL       0.0000
    670 O144        -8.3947    13.5804    18.1626 O         1 MOL       0.0000
    671 O145        -1.7399    13.6771    14.1650 O         1 MOL       0.0000
    672 O146       -15.8942     9.7167    24.9528 O         1 MOL       0.0000
    673 O147        -2.5355    10.9228    14.1944 O         1 MOL       0.0000
    674 O148       -13.6260    11.4990    25.0341 O         1 MOL       0.0000
    675 O149        -6.6678    14.1341    16.0734 O         1 MOL       0.0000
    676 O150       -11.3697     7.1303    23.0545 O         1 MOL       0.0000
    677 O151        -4.2137    12.9089    13.1406 O         1 MOL       0.0000
    678 O152       -13.4163     8.9450    26.0689 O         1 MOL       0.0000
    679 H193        -7.4477     9.0153    21.5633 H         1 MOL       0.0000
    680 H194       -17.7546    18.1586    19.1518 H         1 MOL       0.0000
    681 H195        -6.6965    17.7568    18.6374 H         1 MOL       0.0000
    682 H196        -6.4537    10.5542    19.8475 H         1 MOL       0.0000
    683 H197       -11.1090    11.2744    21.4625 H         1 MOL       0.0000
    684 H198         0.9770     4.8905    20.0567 H         1 MOL       0.0000
    685 H199        -9.7771     9.3783    22.3306 H         1 MOL       0.0000
    686 H200       -10.1056    12.8243    19.7589 H         1 MOL       0.0000
    687 H201        -5.3595    15.9881    17.5164 H         1 MOL       0.0000
    688 H202        -2.9028    15.8924    17.8068 H         1 MOL       0.0000
    689 C221        -8.2269    11.7696    19.6948 C         1 MOL       0.0000
    690 C222        -9.3368    10.0548    21.5994 C         1 MOL       0.0000
    691 C223        -4.8632    16.7162    18.1574 C         1 MOL       0.0000
    692 C224       -13.0681     4.5807    19.6874 C         1 MOL       0.0000
    693 C225        -9.5396    11.9829    20.1520 C         1 MOL       0.0000
    694 C226        -8.0219     9.8499    21.1648 C         1 MOL       0.0000
    695 C227        -5.6164    17.7251    18.7697 C         1 MOL       0.0000
    696 C228       -18.8354    18.1690    19.0284 C         1 MOL       0.0000
    697 C229        -3.4763    16.6591    18.3247 C         1 MOL       0.0000
    698 C230         1.5393     4.0854    19.5901 C         1 MOL       0.0000
    699 C231        -7.4672    10.7045    20.2117 C         1 MOL       0.0000
    700 C232       -10.0933    11.1223    21.1009 C         1 MOL       0.0000
    701 N35         -5.8760    18.1615    14.2852 N         1 MOL       0.0000
    702 N36         -9.0776    10.2547    25.9270 N         1 MOL       0.0000
    703 C233        -5.9942    18.8737    13.0861 C         1 MOL       0.0000
    704 C234        -9.7805    11.2409    25.2651 C         1 MOL       0.0000
    705 C235        -6.7632    10.2570    24.9104 C         1 MOL       0.0000
    706 C236        -6.3395    18.6811    15.6116 C         1 MOL       0.0000
    707 C237        -4.8526    17.2871    14.1220 C         1 MOL       0.0000
    708 C238        -7.9909     9.4498    25.3269 C         1 MOL       0.0000
    709 H203       -11.1444    12.7557    26.1065 H         1 MOL       0.0000
    710 H204        -9.6100    11.4787    24.2182 H         1 MOL       0.0000
    711 H205        -7.0139    11.0458    24.1876 H         1 MOL       0.0000
    712 H206        -6.7035    19.7011    15.4746 H         1 MOL       0.0000
    713 H207        -6.2779    10.7384    25.7668 H         1 MOL       0.0000
    714 H208        -7.1215    18.0460    16.0000 H         1 MOL       0.0000
    715 H209        -6.0503     9.5821    24.4165 H         1 MOL       0.0000
    716 H210        -8.4266     8.9250    24.4669 H         1 MOL       0.0000
    717 H211        -5.5019    18.6892    16.3149 H         1 MOL       0.0000
    718 H212        -4.3220    16.7770    14.9139 H         1 MOL       0.0000
    719 H213        -7.7454     8.6885    26.0734 H         1 MOL       0.0000
    720 N37         -4.4047    21.4602    13.1142 N         1 MOL       0.0000
    721 C239       -10.7964     8.0713    14.7455 C         1 MOL       0.0000
    722 C240        -1.5002     1.8265    23.8922 C         1 MOL       0.0000
    723 O153         2.6074     7.1199    15.6502 O         1 MOL       0.0000
    724 O154        -2.5292    19.1037    14.4349 O         1 MOL       0.0000
    725 O155        -9.9184    13.9630    23.9475 O         1 MOL       0.0000
    726 O156        -7.2043    13.8320    22.8494 O         1 MOL       0.0000
    727 F37        -11.1763     9.5411    15.2308 F         1 MOL       0.0000
    728 F38         -1.0811     3.5809    24.9196 F         1 MOL       0.0000
    729 F39         -9.2241     8.8778    14.0348 F         1 MOL       0.0000
    730 F40        -11.4148     7.4944    16.8074 F         1 MOL       0.0000
    731 F41         -2.6030     2.6616    23.4369 F         1 MOL       0.0000
    732 F42         -8.5879    15.6172    21.9349 F         1 MOL       0.0000
    733 S13         -3.3437    20.7614    14.3506 S         1 MOL       0.0000
    734 S14         -8.5543    14.3347    24.3169 S         1 MOL       0.0000
    735 N38         -8.0116     9.0958    16.2848 N         1 MOL       0.0000
    736 N39         -9.8480     9.8666    17.2749 N         1 MOL       0.0000
    737 C241        -7.0607     8.6873    15.1825 C         1 MOL       0.0000
    738 C242        -9.0763     9.8916    16.1616 C         1 MOL       0.0000
    739 C243        -8.1667     8.3891    17.4891 C         1 MOL       0.0000
    740 C244        -7.2052     7.3091    14.4821 C         1 MOL       0.0000
    741 C245        -9.2998     8.8656    18.0894 C         1 MOL       0.0000
    742 C246       -11.2987    10.2428    17.4293 C         1 MOL       0.0000
    743 H214        -6.0662     8.7686    15.6347 H         1 MOL       0.0000
    744 H215        -7.1423     9.4887    14.4382 H         1 MOL       0.0000
    745 H216        -9.2630    10.5181    15.2839 H         1 MOL       0.0000
    746 H217        -6.2859     7.1258    13.9021 H         1 MOL       0.0000
    747 H218        -7.4175     7.6994    17.8452 H         1 MOL       0.0000
    748 H219       -11.4490    10.8049    18.3509 H         1 MOL       0.0000
    749 H220       -11.6459    10.8223    16.5695 H         1 MOL       0.0000
    750 H221        -7.3501     6.4899    15.1917 H         1 MOL       0.0000
    751 H222        -9.7877     8.5891    19.0096 H         1 MOL       0.0000
    752 H223        -8.0481     7.2755    13.7848 H         1 MOL       0.0000
    753 H224       -11.8696     9.2991    17.4146 H         1 MOL       0.0000
    754 N40        -11.7831     8.0891    14.0301 N         1 MOL       0.0000
    755 C247         3.3204     5.7594    16.5263 C         1 MOL       0.0000
    756 C248        -1.6303     1.0128    25.2734 C         1 MOL       0.0000
    757 O157       -10.4701    10.6438    13.2753 O         1 MOL       0.0000
    758 O158       -16.2129    20.4897    15.6057 O         1 MOL       0.0000
    759 O159       -14.8483     1.3640    25.0336 O         1 MOL       0.0000
    760 O160       -16.7917    20.5410    13.1022 O         1 MOL       0.0000
    761 F43        -13.4125     6.7416    17.5468 F         1 MOL       0.0000
    762 F44         -3.1131     1.5574    25.8977 F         1 MOL       0.0000
    763 F45         -4.5622    19.7652    15.0243 F         1 MOL       0.0000
    764 F46         -3.1861    18.9581    16.7389 F         1 MOL       0.0000
    765 F47         -0.5307     1.5666    23.6667 F         1 MOL       0.0000
    766 F48         -7.8014    13.4149    24.8183 F         1 MOL       0.0000
    767 S15        -15.5593     2.2569    25.9261 S         1 MOL       0.0000
    768 S16        -17.1582    20.8924    14.6089 S         1 MOL       0.0000
    769 Ti33        13.1446     1.6728    11.3364 Ti        1 MOL       0.0000
    770 Ti34        23.9750     4.5540     1.9716 Ti        1 MOL       0.0000
    771 Ti35        17.2413    -2.2634     9.5164 Ti        1 MOL       0.0000
    772 Ti36        18.7524     6.8987     3.7434 Ti        1 MOL       0.0000
    773 Ti37        17.7539     8.5770     1.8390 Ti        1 MOL       0.0000
    774 Ti38        19.1295    -2.5178    11.4698 Ti        1 MOL       0.0000
    775 Ti39        14.0938    -0.0631     9.4449 Ti        1 MOL       0.0000
    776 Ti40        21.9872     4.8565     3.8191 Ti        1 MOL       0.0000
    777 H225        13.6464     5.5698    11.1169 H         1 MOL       0.0000
    778 H226        24.7838     0.6479     2.2923 H         1 MOL       0.0000
    779 H227         9.1847     0.9161    10.9540 H         1 MOL       0.0000
    780 H228        27.3572     6.5583     2.1722 H         1 MOL       0.0000
    781 H229        20.1051    -6.5523    11.0839 H         1 MOL       0.0000
    782 H230        13.6953     7.9871     2.1610 H         1 MOL       0.0000
    783 H231        13.6133    -0.1258    13.0609 H         1 MOL       0.0000
    784 H232        22.0995     4.3113     0.2717 H         1 MOL       0.0000
    785 H233        19.6394    -3.1849     5.9587 H         1 MOL       0.0000
    786 H234        17.0290     8.7357     7.3624 H         1 MOL       0.0000
    787 H235        10.0211     3.3255     9.0890 H         1 MOL       0.0000
    788 H236        26.7298     2.4697     4.2776 H         1 MOL       0.0000
    789 H237        12.3222     1.8781     5.7552 H         1 MOL       0.0000
    790 H238        14.6538    10.4049     4.1922 H         1 MOL       0.0000
    791 H239        18.1461    11.6798     2.6945 H         1 MOL       0.0000
    792 H240        24.6260    -1.3709     3.4948 H         1 MOL       0.0000
    793 H241        20.8451     6.5788     2.4048 H         1 MOL       0.0000
    794 H242        16.1605    -0.4150    10.8100 H         1 MOL       0.0000
    795 H243        23.3642    -0.5829     9.8595 H         1 MOL       0.0000
    796 H244        21.8831    -1.0520    10.6068 H         1 MOL       0.0000
    797 H245        23.9383     3.8507     8.7606 H         1 MOL       0.0000
    798 H246        23.3686     4.2093     7.1420 H         1 MOL       0.0000
    799 H247        22.8754    -5.5378     9.6694 H         1 MOL       0.0000
    800 H248        21.5962    -4.4372    10.1268 H         1 MOL       0.0000
    801 C249        24.5531     3.8127     4.8351 C         1 MOL       0.0000
    802 C250        12.1840     1.9341     8.4894 C         1 MOL       0.0000
    803 C251        19.8218    -3.2741     8.5917 C         1 MOL       0.0000
    804 C252        16.8163     8.8692     4.7027 C         1 MOL       0.0000
    805 C253        25.4491     3.2084     5.8303 C         1 MOL       0.0000
    806 C254        11.2521     2.5592     7.5123 C         1 MOL       0.0000
    807 C255        20.7620    -3.8885     7.6445 C         1 MOL       0.0000
    808 C256        15.9265     9.5160     5.7025 C         1 MOL       0.0000
    809 C257        25.2003     3.2833     7.2367 C         1 MOL       0.0000
    810 C258        11.4685     2.4392     6.1243 C         1 MOL       0.0000
    811 C259        21.8914    -4.6488     8.0976 C         1 MOL       0.0000
    812 C260        14.8318    10.2890     5.2576 C         1 MOL       0.0000
    813 C261        16.1810     9.3453     7.0574 C         1 MOL       0.0000
    814 C262        20.5142    -3.7563     6.2606 C         1 MOL       0.0000
    815 C263        26.5828     2.5094     5.3546 C         1 MOL       0.0000
    816 C264        10.1519     3.2516     8.0110 C         1 MOL       0.0000
    817 C265        24.7648     0.7270     0.1482 C         1 MOL       0.0000
    818 C266        18.2951    12.5186     0.1732 C         1 MOL       0.0000
    819 C267        22.6143    -0.5759    13.1172 C         1 MOL       0.0000
    820 C268         9.2560     0.9665    13.0978 C         1 MOL       0.0000
    821 C269        19.4992     4.5555     5.7080 C         1 MOL       0.0000
    822 C270        14.7431    -2.5389     7.6261 C         1 MOL       0.0000
    823 C271        19.9940    -4.8842    13.2200 C         1 MOL       0.0000
    824 C272        18.2024    11.0851     0.1357 C         1 MOL       0.0000
    825 C273        21.3164    -1.1927    13.1640 C         1 MOL       0.0000
    826 C274        10.6583     1.3809    13.1223 C         1 MOL       0.0000
    827 C275        24.8042     0.0579     1.3779 C         1 MOL       0.0000
    828 C276        13.6574     6.1583    12.0308 C         1 MOL       0.0000
    829 C277        11.9046     7.3219     1.1661 C         1 MOL       0.0000
    830 C278         8.6232     0.7368    11.8693 C         1 MOL       0.0000
    831 C279        23.3089    -0.3076    11.8838 C         1 MOL       0.0000
    832 C280        13.1938     7.8021     1.2153 C         1 MOL       0.0000
    833 C281        20.1467    -7.0795    12.0329 C         1 MOL       0.0000
    834 C282        24.8259    -1.3432     1.4595 C         1 MOL       0.0000
    835 N41         24.8809    -1.9421     2.6976 N         1 MOL       0.0000
    836 N42         22.7299    -0.4905    10.6448 N         1 MOL       0.0000
    837 N43         24.1195     3.9296     7.7680 N         1 MOL       0.0000
    838 N44         22.2224    -4.8070     9.4150 N         1 MOL       0.0000
    839 O161        23.3768     4.2178     5.2009 O         1 MOL       0.0000
    840 O162        12.9530     0.9833     8.0911 O         1 MOL       0.0000
    841 O163        20.2032    -3.1497     9.8128 O         1 MOL       0.0000
    842 O164        16.7505     9.2989     3.5031 O         1 MOL       0.0000
    843 O165        17.5868     7.9120     5.0892 O         1 MOL       0.0000
    844 O166        18.6513    -2.9057     8.1862 O         1 MOL       0.0000
    845 O167        24.9650     3.8935     3.6234 O         1 MOL       0.0000
    846 O168        12.1420     2.3704     9.6891 O         1 MOL       0.0000
    847 O169        22.2924     3.6386     2.6244 O         1 MOL       0.0000
    848 O170        14.6462     1.4972    10.1894 O         1 MOL       0.0000
    849 O171        23.2312     5.9259     3.0743 O         1 MOL       0.0000
    850 O172        12.8940    -0.2275    10.6821 O         1 MOL       0.0000
    851 O173        17.5006    -3.4354    10.7768 O         1 MOL       0.0000
    852 O174        19.2690     8.4600     3.0049 O         1 MOL       0.0000
    853 O175        18.4545    -1.1739    10.3127 O         1 MOL       0.0000
    854 O176        17.5628     6.7029     2.4875 O         1 MOL       0.0000
    855 O177        20.7203     4.3756     5.3537 O         1 MOL       0.0000
    856 O178        14.0854    -1.5039     8.0043 O         1 MOL       0.0000
    857 O179        19.8718    -4.2896    12.0789 O         1 MOL       0.0000
    858 O180        18.1193    10.3836     1.2309 O         1 MOL       0.0000
    859 O181        20.6739    -1.5015    12.0738 O         1 MOL       0.0000
    860 O182        15.8833     8.5479     1.1708 O         1 MOL       0.0000
    861 O183        15.9049    -2.8334     8.0839 O         1 MOL       0.0000
    862 O184        18.7573     5.4764     5.2146 O         1 MOL       0.0000
    863 O185        25.4121     5.5731     1.2170 O         1 MOL       0.0000
    864 O186        11.2578     1.6127    12.0048 O         1 MOL       0.0000
    865 O187        24.6166     2.8188     1.2464 O         1 MOL       0.0000
    866 O188        13.5260     3.3950    12.0861 O         1 MOL       0.0000
    867 O189        20.4842     6.0301     3.1254 O         1 MOL       0.0000
    868 O190        15.7823    -0.9737    10.1065 O         1 MOL       0.0000
    869 O191        22.9383     4.8049     0.1926 O         1 MOL       0.0000
    870 O192        13.7357     0.8410    13.1209 O         1 MOL       0.0000
    871 H249        19.7043     0.9113     8.6153 H         1 MOL       0.0000
    872 H250         9.3974    10.0546     6.2038 H         1 MOL       0.0000
    873 H251        20.4555     9.6528     5.6894 H         1 MOL       0.0000
    874 H252        20.6983     2.4502     6.8995 H         1 MOL       0.0000
    875 H253        16.0430     3.1704     8.5145 H         1 MOL       0.0000
    876 H254        28.1290    -3.2135     7.1087 H         1 MOL       0.0000
    877 H255        17.3749     1.2743     9.3826 H         1 MOL       0.0000
    878 H256        17.0464     4.7203     6.8109 H         1 MOL       0.0000
    879 H257        21.7925     7.8841     4.5684 H         1 MOL       0.0000
    880 H258        24.2492     7.7884     4.8588 H         1 MOL       0.0000
    881 C283        18.9251     3.6656     6.7468 C         1 MOL       0.0000
    882 C284        17.8152     1.9508     8.6514 C         1 MOL       0.0000
    883 C285        22.2888     8.6122     5.2094 C         1 MOL       0.0000
    884 C286        14.0839    -3.5233     6.7394 C         1 MOL       0.0000
    885 C287        17.6124     3.8789     7.2040 C         1 MOL       0.0000
    886 C288        19.1301     1.7459     8.2168 C         1 MOL       0.0000
    887 C289        21.5356     9.6211     5.8217 C         1 MOL       0.0000
    888 C290         8.3166    10.0650     6.0804 C         1 MOL       0.0000
    889 C291        23.6757     8.5551     5.3767 C         1 MOL       0.0000
    890 C292        28.6913    -4.0186     6.6421 C         1 MOL       0.0000
    891 C293        19.6848     2.6005     7.2637 C         1 MOL       0.0000
    892 C294        17.0587     3.0183     8.1529 C         1 MOL       0.0000
    893 N45         21.2760    10.0575     1.3372 N         1 MOL       0.0000
    894 N46         18.0744     2.1507    12.9790 N         1 MOL       0.0000
    895 C295        21.1578    10.7697     0.1381 C         1 MOL       0.0000
    896 C296        17.3715     3.1369    12.3171 C         1 MOL       0.0000
    897 C297        20.3888     2.1530    11.9624 C         1 MOL       0.0000
    898 C298        20.8125    10.5771     2.6636 C         1 MOL       0.0000
    899 C299        22.2994     9.1831     1.1740 C         1 MOL       0.0000
    900 C300        19.1611     1.3458    12.3789 C         1 MOL       0.0000
    901 H259        16.0076     4.6517    13.1585 H         1 MOL       0.0000
    902 H260        17.5420     3.3747    11.2702 H         1 MOL       0.0000
    903 H261        20.1381     2.9418    11.2396 H         1 MOL       0.0000
    904 H262        20.4485    11.5971     2.5266 H         1 MOL       0.0000
    905 H263        20.8741     2.6344    12.8188 H         1 MOL       0.0000
    906 H264        20.0305     9.9420     3.0520 H         1 MOL       0.0000
    907 H265        21.1017     1.4781    11.4685 H         1 MOL       0.0000
    908 H266        18.7254     0.8210    11.5189 H         1 MOL       0.0000
    909 H267        21.6501    10.5852     3.3669 H         1 MOL       0.0000
    910 H268        22.8300     8.6730     1.9659 H         1 MOL       0.0000
    911 H269        19.4066     0.5845    13.1254 H         1 MOL       0.0000
    912 N47         22.7473    13.3562     0.1662 N         1 MOL       0.0000
    913 C301        16.3556    -0.0327     1.7975 C         1 MOL       0.0000
    914 C302        25.6518    -6.2775    10.9442 C         1 MOL       0.0000
    915 O193        29.7594    -0.9841     2.7022 O         1 MOL       0.0000
    916 O194        24.6228    10.9997     1.4869 O         1 MOL       0.0000
    917 O195        17.2336     5.8590    10.9995 O         1 MOL       0.0000
    918 O196        19.9477     5.7280     9.9014 O         1 MOL       0.0000
    919 F49         15.9757     1.4371     2.2828 F         1 MOL       0.0000
    920 F50         26.0709    -4.5231    11.9716 F         1 MOL       0.0000
    921 F51         17.9279     0.7738     1.0868 F         1 MOL       0.0000
    922 F52         15.7372    -0.6096     3.8594 F         1 MOL       0.0000
    923 F53         24.5490    -5.4424    10.4889 F         1 MOL       0.0000
    924 F54         18.5641     7.5132     8.9869 F         1 MOL       0.0000
    925 S17         23.8083    12.6574     1.4026 S         1 MOL       0.0000
    926 S18         18.5977     6.2307    11.3689 S         1 MOL       0.0000
    927 N48         19.1404     0.9918     3.3368 N         1 MOL       0.0000
    928 N49         17.3040     1.7626     4.3269 N         1 MOL       0.0000
    929 C303        20.0913     0.5833     2.2345 C         1 MOL       0.0000
    930 C304        18.0757     1.7876     3.2136 C         1 MOL       0.0000
    931 C305        18.9853     0.2851     4.5411 C         1 MOL       0.0000
    932 C306        19.9468    -0.7949     1.5341 C         1 MOL       0.0000
    933 C307        17.8522     0.7616     5.1414 C         1 MOL       0.0000
    934 C308        15.8533     2.1388     4.4813 C         1 MOL       0.0000
    935 H270        21.0858     0.6646     2.6867 H         1 MOL       0.0000
    936 H271        20.0097     1.3847     1.4902 H         1 MOL       0.0000
    937 H272        17.8890     2.4141     2.3359 H         1 MOL       0.0000
    938 H273        20.8661    -0.9782     0.9541 H         1 MOL       0.0000
    939 H274        19.7345    -0.4046     4.8972 H         1 MOL       0.0000
    940 H275        15.7030     2.7009     5.4029 H         1 MOL       0.0000
    941 H276        15.5061     2.7183     3.6215 H         1 MOL       0.0000
    942 H277        19.8019    -1.6141     2.2437 H         1 MOL       0.0000
    943 H278        17.3643     0.4851     6.0616 H         1 MOL       0.0000
    944 H279        19.1039    -0.8285     0.8368 H         1 MOL       0.0000
    945 H280        15.2824     1.1951     4.4666 H         1 MOL       0.0000
    946 N50         15.3689    -0.0149     1.0821 N         1 MOL       0.0000
    947 C309        30.4724    -2.3446     3.5783 C         1 MOL       0.0000
    948 C310        25.5217    -7.0912    12.3254 C         1 MOL       0.0000
    949 O197        16.6819     2.5398     0.3273 O         1 MOL       0.0000
    950 O198        10.9391    12.3857     2.6577 O         1 MOL       0.0000
    951 O199        12.3037    -6.7400    12.0856 O         1 MOL       0.0000
    952 O200        10.3603    12.4370     0.1542 O         1 MOL       0.0000
    953 F55         13.7395    -1.3624     4.5988 F         1 MOL       0.0000
    954 F56         24.0389    -6.5466    12.9497 F         1 MOL       0.0000
    955 F57         22.5898    11.6612     2.0763 F         1 MOL       0.0000
    956 F58         23.9659    10.8541     3.7909 F         1 MOL       0.0000
    957 F59         26.6213    -6.5374    10.7187 F         1 MOL       0.0000
    958 F60         19.3506     5.3109    11.8703 F         1 MOL       0.0000
    959 S19         11.5927    -5.8471    12.9781 S         1 MOL       0.0000
    960 S20          9.9938    12.7884     1.6609 S         1 MOL       0.0000
    961 Ti41         8.5096    -5.3932    24.4314 Ti        1 MOL       0.0000
    962 Ti42        19.3400    -2.5120    15.0666 Ti        1 MOL       0.0000
    963 Ti43        12.6063    -9.3294    22.6114 Ti        1 MOL       0.0000
    964 Ti44        14.1174    -0.1673    16.8384 Ti        1 MOL       0.0000
    965 Ti45        13.1189     1.5110    14.9340 Ti        1 MOL       0.0000
    966 Ti46        14.4945    -9.5838    24.5648 Ti        1 MOL       0.0000
    967 Ti47         9.4588    -7.1291    22.5399 Ti        1 MOL       0.0000
    968 Ti48        17.3522    -2.2095    16.9140 Ti        1 MOL       0.0000
    969 H281         9.0114    -1.4961    24.2119 H         1 MOL       0.0000
    970 H282        20.1488    -6.4181    15.3873 H         1 MOL       0.0000
    971 H283         4.5497    -6.1499    24.0490 H         1 MOL       0.0000
    972 H284        22.7222    -0.5077    15.2672 H         1 MOL       0.0000
    973 H285        15.4701   -13.6183    24.1789 H         1 MOL       0.0000
    974 H286         9.0603     0.9211    15.2561 H         1 MOL       0.0000
    975 H287         8.9783    -7.1918    26.1559 H         1 MOL       0.0000
    976 H288        17.4645    -2.7547    13.3666 H         1 MOL       0.0000
    977 H289        15.0044   -10.2509    19.0537 H         1 MOL       0.0000
    978 H290        12.3940     1.6697    20.4573 H         1 MOL       0.0000
    979 H291         5.3861    -3.7405    22.1840 H         1 MOL       0.0000
    980 H292        22.0948    -4.5963    17.3726 H         1 MOL       0.0000
    981 H293         7.6872    -5.1879    18.8502 H         1 MOL       0.0000
    982 H294        10.0188     3.3389    17.2872 H         1 MOL       0.0000
    983 H295        13.5111     4.6138    15.7895 H         1 MOL       0.0000
    984 H296        19.9910    -8.4369    16.5898 H         1 MOL       0.0000
    985 H297        16.2101    -0.4872    15.4998 H         1 MOL       0.0000
    986 H298        11.5255    -7.4810    23.9050 H         1 MOL       0.0000
    987 H299        18.7292    -7.6489    22.9545 H         1 MOL       0.0000
    988 H300        17.2481    -8.1180    23.7018 H         1 MOL       0.0000
    989 H301        19.3033    -3.2153    21.8555 H         1 MOL       0.0000
    990 H302        18.7336    -2.8567    20.2370 H         1 MOL       0.0000
    991 H303        18.2404   -12.6038    22.7644 H         1 MOL       0.0000
    992 H304        16.9612   -11.5032    23.2218 H         1 MOL       0.0000
    993 C311        19.9181    -3.2533    17.9301 C         1 MOL       0.0000
    994 C312         7.5490    -5.1319    21.5844 C         1 MOL       0.0000
    995 C313        15.1867   -10.3401    21.6867 C         1 MOL       0.0000
    996 C314        12.1813     1.8032    17.7978 C         1 MOL       0.0000
    997 C315        20.8141    -3.8576    18.9253 C         1 MOL       0.0000
    998 C316         6.6171    -4.5068    20.6073 C         1 MOL       0.0000
    999 C317        16.1270   -10.9545    20.7395 C         1 MOL       0.0000
   1000 C318        11.2915     2.4500    18.7975 C         1 MOL       0.0000
   1001 C319        20.5653    -3.7827    20.3317 C         1 MOL       0.0000
   1002 C320         6.8335    -4.6268    19.2193 C         1 MOL       0.0000
   1003 C321        17.2564   -11.7148    21.1926 C         1 MOL       0.0000
   1004 C322        10.1968     3.2230    18.3526 C         1 MOL       0.0000
   1005 C323        11.5460     2.2792    20.1524 C         1 MOL       0.0000
   1006 C324        15.8792   -10.8223    19.3556 C         1 MOL       0.0000
   1007 C325        21.9478    -4.5566    18.4496 C         1 MOL       0.0000
   1008 C326         5.5170    -3.8144    21.1060 C         1 MOL       0.0000
   1009 C327        20.1298    -6.3390    13.2432 C         1 MOL       0.0000
   1010 C328        13.6601     5.4526    13.2682 C         1 MOL       0.0000
   1011 C329        17.9793    -7.6419    26.2122 C         1 MOL       0.0000
   1012 C330         4.6210    -6.0995    26.1928 C         1 MOL       0.0000
   1013 C331        14.8642    -2.5105    18.8030 C         1 MOL       0.0000
   1014 C332        10.1081    -9.6049    20.7211 C         1 MOL       0.0000
   1015 C333        15.3590   -11.9502    26.3150 C         1 MOL       0.0000
   1016 C334        13.5674     4.0191    13.2307 C         1 MOL       0.0000
   1017 C335        16.6814    -8.2587    26.2590 C         1 MOL       0.0000
   1018 C336         6.0233    -5.6851    26.2173 C         1 MOL       0.0000
   1019 C337        20.1692    -7.0081    14.4729 C         1 MOL       0.0000
   1020 C338         9.0224    -0.9077    25.1258 C         1 MOL       0.0000
   1021 C339         7.2696     0.2559    14.2611 C         1 MOL       0.0000
   1022 C340         3.9882    -6.3292    24.9643 C         1 MOL       0.0000
   1023 C341        18.6739    -7.3736    24.9788 C         1 MOL       0.0000
   1024 C342         8.5588     0.7361    14.3103 C         1 MOL       0.0000
   1025 C343        15.5117   -14.1455    25.1279 C         1 MOL       0.0000
   1026 C344        20.1909    -8.4092    14.5545 C         1 MOL       0.0000
   1027 N51         20.2459    -9.0081    15.7926 N         1 MOL       0.0000
   1028 N52         18.0949    -7.5564    23.7398 N         1 MOL       0.0000
   1029 N53         19.4844    -3.1364    20.8630 N         1 MOL       0.0000
   1030 N54         17.5874   -11.8730    22.5100 N         1 MOL       0.0000
   1031 O201        18.7418    -2.8482    18.2959 O         1 MOL       0.0000
   1032 O202         8.3180    -6.0827    21.1861 O         1 MOL       0.0000
   1033 O203        15.5682   -10.2157    22.9078 O         1 MOL       0.0000
   1034 O204        12.1155     2.2329    16.5982 O         1 MOL       0.0000
   1035 O205        12.9518     0.8460    18.1842 O         1 MOL       0.0000
   1036 O206        14.0163    -9.9717    21.2812 O         1 MOL       0.0000
   1037 O207        20.3300    -3.1725    16.7184 O         1 MOL       0.0000
   1038 O208         7.5070    -4.6956    22.7841 O         1 MOL       0.0000
   1039 O209        17.6574    -3.4274    15.7194 O         1 MOL       0.0000
   1040 O210        10.0112    -5.5688    23.2844 O         1 MOL       0.0000
   1041 O211        18.5962    -1.1401    16.1693 O         1 MOL       0.0000
   1042 O212         8.2590    -7.2935    23.7771 O         1 MOL       0.0000
   1043 O213        12.8655   -10.5014    23.8718 O         1 MOL       0.0000
   1044 O214        14.6340     1.3940    16.0999 O         1 MOL       0.0000
   1045 O215        13.8195    -8.2399    23.4077 O         1 MOL       0.0000
   1046 O216        12.9278    -0.3631    15.5825 O         1 MOL       0.0000
   1047 O217        16.0853    -2.6904    18.4487 O         1 MOL       0.0000
   1048 O218         9.4504    -8.5699    21.0993 O         1 MOL       0.0000
   1049 O219        15.2368   -11.3556    25.1739 O         1 MOL       0.0000
   1050 O220        13.4843     3.3176    14.3259 O         1 MOL       0.0000
   1051 O221        16.0389    -8.5675    25.1688 O         1 MOL       0.0000
   1052 O222        11.2483     1.4819    14.2658 O         1 MOL       0.0000
   1053 O223        11.2699    -9.8994    21.1789 O         1 MOL       0.0000
   1054 O224        14.1223    -1.5896    18.3096 O         1 MOL       0.0000
   1055 O225        20.7771    -1.4929    14.3120 O         1 MOL       0.0000
   1056 O226         6.6228    -5.4533    25.0998 O         1 MOL       0.0000
   1057 O227        19.9816    -4.2472    14.3414 O         1 MOL       0.0000
   1058 O228         8.8910    -3.6709    25.1811 O         1 MOL       0.0000
   1059 O229        15.8492    -1.0359    16.2204 O         1 MOL       0.0000
   1060 O230        11.1473    -8.0397    23.2015 O         1 MOL       0.0000
   1061 O231        18.3033    -2.2611    13.2876 O         1 MOL       0.0000
   1062 O232         9.1007    -6.2250    26.2159 O         1 MOL       0.0000
   1063 H305        15.0693    -6.1547    21.7103 H         1 MOL       0.0000
   1064 H306         4.7624     2.9886    19.2988 H         1 MOL       0.0000
   1065 H307        15.8205     2.5868    18.7844 H         1 MOL       0.0000
   1066 H308        16.0633    -4.6158    19.9945 H         1 MOL       0.0000
   1067 H309        11.4080    -3.8956    21.6095 H         1 MOL       0.0000
   1068 H310        23.4940   -10.2795    20.2037 H         1 MOL       0.0000
   1069 H311        12.7399    -5.7917    22.4776 H         1 MOL       0.0000
   1070 H312        12.4114    -2.3457    19.9059 H         1 MOL       0.0000
   1071 H313        17.1575     0.8181    17.6634 H         1 MOL       0.0000
   1072 H314        19.6142     0.7224    17.9538 H         1 MOL       0.0000
   1073 C345        14.2901    -3.4004    19.8418 C         1 MOL       0.0000
   1074 C346        13.1802    -5.1152    21.7464 C         1 MOL       0.0000
   1075 C347        17.6538     1.5462    18.3044 C         1 MOL       0.0000
   1076 C348         9.4489   -10.5893    19.8344 C         1 MOL       0.0000
   1077 C349        12.9774    -3.1871    20.2990 C         1 MOL       0.0000
   1078 C350        14.4951    -5.3201    21.3118 C         1 MOL       0.0000
   1079 C351        16.9006     2.5551    18.9167 C         1 MOL       0.0000
   1080 C352         3.6816     2.9990    19.1754 C         1 MOL       0.0000
   1081 C353        19.0407     1.4891    18.4717 C         1 MOL       0.0000
   1082 C354        24.0563   -11.0846    19.7371 C         1 MOL       0.0000
   1083 C355        15.0498    -4.4655    20.3587 C         1 MOL       0.0000
   1084 C356        12.4237    -4.0477    21.2479 C         1 MOL       0.0000
   1085 N55         16.6410     2.9915    14.4322 N         1 MOL       0.0000
   1086 N56         13.4394    -4.9153    26.0740 N         1 MOL       0.0000
   1087 C357        16.5228     3.7037    13.2331 C         1 MOL       0.0000
   1088 C358        12.7365    -3.9291    25.4121 C         1 MOL       0.0000
   1089 C359        15.7538    -4.9130    25.0574 C         1 MOL       0.0000
   1090 C360        16.1775     3.5111    15.7586 C         1 MOL       0.0000
   1091 C361        17.6644     2.1171    14.2690 C         1 MOL       0.0000
   1092 C362        14.5261    -5.7202    25.4739 C         1 MOL       0.0000
   1093 H315        11.3726    -2.4143    26.2535 H         1 MOL       0.0000
   1094 H316        12.9070    -3.6913    24.3652 H         1 MOL       0.0000
   1095 H317        15.5031    -4.1242    24.3346 H         1 MOL       0.0000
   1096 H318        15.8135     4.5311    15.6216 H         1 MOL       0.0000
   1097 H319        16.2391    -4.4316    25.9138 H         1 MOL       0.0000
   1098 H320        15.3955     2.8760    16.1470 H         1 MOL       0.0000
   1099 H321        16.4667    -5.5879    24.5635 H         1 MOL       0.0000
   1100 H322        14.0904    -6.2450    24.6139 H         1 MOL       0.0000
   1101 H323        17.0151     3.5192    16.4619 H         1 MOL       0.0000
   1102 H324        18.1950     1.6070    15.0609 H         1 MOL       0.0000
   1103 H325        14.7716    -6.4815    26.2204 H         1 MOL       0.0000
   1104 N57         18.1123     6.2902    13.2612 N         1 MOL       0.0000
   1105 C363        11.7206    -7.0987    14.8925 C         1 MOL       0.0000
   1106 C364        21.0168   -13.3435    24.0392 C         1 MOL       0.0000
   1107 O233        25.1244    -8.0501    15.7972 O         1 MOL       0.0000
   1108 O234        19.9878     3.9337    14.5819 O         1 MOL       0.0000
   1109 O235        12.5986    -1.2070    24.0945 O         1 MOL       0.0000
   1110 O236        15.3127    -1.3380    22.9964 O         1 MOL       0.0000
   1111 F61         11.3407    -5.6289    15.3778 F         1 MOL       0.0000
   1112 F62         21.4359   -11.5891    25.0666 F         1 MOL       0.0000
   1113 F63         13.2929    -6.2922    14.1818 F         1 MOL       0.0000
   1114 F64         11.1022    -7.6756    16.9544 F         1 MOL       0.0000
   1115 F65         19.9140   -12.5084    23.5839 F         1 MOL       0.0000
   1116 F66         13.9291     0.4472    22.0819 F         1 MOL       0.0000
   1117 S21         19.1733     5.5914    14.4976 S         1 MOL       0.0000
   1118 S22         13.9627    -0.8353    24.4639 S         1 MOL       0.0000
   1119 N58         14.5054    -6.0742    16.4318 N         1 MOL       0.0000
   1120 N59         12.6690    -5.3034    17.4219 N         1 MOL       0.0000
   1121 C365        15.4563    -6.4827    15.3295 C         1 MOL       0.0000
   1122 C366        13.4407    -5.2784    16.3086 C         1 MOL       0.0000
   1123 C367        14.3503    -6.7809    17.6361 C         1 MOL       0.0000
   1124 C368        15.3118    -7.8609    14.6291 C         1 MOL       0.0000
   1125 C369        13.2172    -6.3044    18.2364 C         1 MOL       0.0000
   1126 C370        11.2183    -4.9272    17.5763 C         1 MOL       0.0000
   1127 H326        16.4508    -6.4014    15.7817 H         1 MOL       0.0000
   1128 H327        15.3747    -5.6813    14.5852 H         1 MOL       0.0000
   1129 H328        13.2540    -4.6519    15.4309 H         1 MOL       0.0000
   1130 H329        16.2311    -8.0442    14.0491 H         1 MOL       0.0000
   1131 H330        15.0995    -7.4706    17.9922 H         1 MOL       0.0000
   1132 H331        11.0680    -4.3651    18.4979 H         1 MOL       0.0000
   1133 H332        10.8711    -4.3477    16.7165 H         1 MOL       0.0000
   1134 H333        15.1669    -8.6801    15.3387 H         1 MOL       0.0000
   1135 H334        12.7293    -6.5809    19.1566 H         1 MOL       0.0000
   1136 H335        14.4689    -7.8945    13.9318 H         1 MOL       0.0000
   1137 H336        10.6474    -5.8709    17.5616 H         1 MOL       0.0000
   1138 N60         10.7339    -7.0809    14.1771 N         1 MOL       0.0000
   1139 C371        25.8374    -9.4106    16.6733 C         1 MOL       0.0000
   1140 C372        20.8867   -14.1572    25.4204 C         1 MOL       0.0000
   1141 O237        12.0469    -4.5262    13.4223 O         1 MOL       0.0000
   1142 O238         6.3041     5.3197    15.7527 O         1 MOL       0.0000
   1143 O239         7.6687   -13.8060    25.1806 O         1 MOL       0.0000
   1144 O240         5.7253     5.3710    13.2492 O         1 MOL       0.0000
   1145 F67          9.1045    -8.4284    17.6938 F         1 MOL       0.0000
   1146 F68         19.4039   -13.6126    26.0447 F         1 MOL       0.0000
   1147 F69         17.9548     4.5952    15.1713 F         1 MOL       0.0000
   1148 F70         19.3309     3.7881    16.8859 F         1 MOL       0.0000
   1149 F71         21.9863   -13.6034    23.8137 F         1 MOL       0.0000
   1150 F72         14.7156    -1.7551    24.9653 F         1 MOL       0.0000
   1151 S23          6.9577   -12.9131    26.0731 S         1 MOL       0.0000
   1152 S24          5.3588     5.7224    14.7559 S         1 MOL       0.0000
   1153 Ti49         6.6276    16.2858    11.2794 Ti        1 MOL       0.0000
   1154 Ti50        17.4580    19.1670     1.9146 Ti        1 MOL       0.0000
   1155 Ti51        10.7242    12.3496     9.4594 Ti        1 MOL       0.0000
   1156 Ti52        12.2354    21.5117     3.6864 Ti        1 MOL       0.0000
   1157 Ti53        11.2369    23.1900     1.7820 Ti        1 MOL       0.0000
   1158 Ti54        12.6125    12.0952    11.4128 Ti        1 MOL       0.0000
   1159 Ti55         7.5768    14.5499     9.3879 Ti        1 MOL       0.0000
   1160 Ti56        15.4702    19.4695     3.7621 Ti        1 MOL       0.0000
   1161 H337         7.1294    20.1828    11.0599 H         1 MOL       0.0000
   1162 H338        18.2668    15.2609     2.2353 H         1 MOL       0.0000
   1163 H339         2.6677    15.5291    10.8970 H         1 MOL       0.0000
   1164 H340        20.8402    21.1713     2.1152 H         1 MOL       0.0000
   1165 H341        13.5881     8.0607    11.0269 H         1 MOL       0.0000
   1166 H342         7.1783    22.6001     2.1040 H         1 MOL       0.0000
   1167 H343         7.0963    14.4872    13.0039 H         1 MOL       0.0000
   1168 H344        15.5825    18.9243     0.2147 H         1 MOL       0.0000
   1169 H345        13.1224    11.4281     5.9017 H         1 MOL       0.0000
   1170 H346        10.5120    23.3487     7.3053 H         1 MOL       0.0000
   1171 H347         3.5041    17.9385     9.0320 H         1 MOL       0.0000
   1172 H348        20.2128    17.0826     4.2206 H         1 MOL       0.0000
   1173 H349         5.8052    16.4911     5.6982 H         1 MOL       0.0000
   1174 H350         8.1368    25.0179     4.1352 H         1 MOL       0.0000
   1175 H351        11.6291    26.2928     2.6375 H         1 MOL       0.0000
   1176 H352        18.1090    13.2421     3.4378 H         1 MOL       0.0000
   1177 H353        14.3281    21.1918     2.3478 H         1 MOL       0.0000
   1178 H354         9.6435    14.1980    10.7530 H         1 MOL       0.0000
   1179 H355        16.8472    14.0301     9.8025 H         1 MOL       0.0000
   1180 H356        15.3661    13.5610    10.5498 H         1 MOL       0.0000
   1181 H357        17.4213    18.4637     8.7035 H         1 MOL       0.0000
   1182 H358        16.8516    18.8223     7.0850 H         1 MOL       0.0000
   1183 H359        16.3584     9.0752     9.6124 H         1 MOL       0.0000
   1184 H360        15.0792    10.1758    10.0698 H         1 MOL       0.0000
   1185 C373        18.0361    18.4257     4.7781 C         1 MOL       0.0000
   1186 C374         5.6670    16.5472     8.4324 C         1 MOL       0.0000
   1187 C375        13.3048    11.3389     8.5347 C         1 MOL       0.0000
   1188 C376        10.2993    23.4822     4.6457 C         1 MOL       0.0000
   1189 C377        18.9321    17.8214     5.7733 C         1 MOL       0.0000
   1190 C378         4.7351    17.1722     7.4553 C         1 MOL       0.0000
   1191 C379        14.2450    10.7245     7.5875 C         1 MOL       0.0000
   1192 C380         9.4095    24.1290     5.6455 C         1 MOL       0.0000
   1193 C381        18.6833    17.8963     7.1797 C         1 MOL       0.0000
   1194 C382         4.9515    17.0522     6.0673 C         1 MOL       0.0000
   1195 C383        15.3744     9.9642     8.0406 C         1 MOL       0.0000
   1196 C384         8.3148    24.9020     5.2006 C         1 MOL       0.0000
   1197 C385         9.6640    23.9582     7.0004 C         1 MOL       0.0000
   1198 C386        13.9972    10.8566     6.2036 C         1 MOL       0.0000
   1199 C387        20.0658    17.1224     5.2976 C         1 MOL       0.0000
   1200 C388         3.6349    17.8646     7.9540 C         1 MOL       0.0000
   1201 C389        18.2478    15.3400     0.0912 C         1 MOL       0.0000
   1202 C390        11.7781    27.1316     0.1162 C         1 MOL       0.0000
   1203 C391        16.0973    14.0371    13.0602 C         1 MOL       0.0000
   1204 C392         2.7390    15.5795    13.0408 C         1 MOL       0.0000
   1205 C393        12.9822    19.1685     5.6510 C         1 MOL       0.0000
   1206 C394         8.2261    12.0742     7.5691 C         1 MOL       0.0000
   1207 C395        13.4770     9.7288    13.1630 C         1 MOL       0.0000
   1208 C396        11.6854    25.6981     0.0787 C         1 MOL       0.0000
   1209 C397        14.7995    13.4203    13.1070 C         1 MOL       0.0000
   1210 C398         4.1413    15.9939    13.0653 C         1 MOL       0.0000
   1211 C399        18.2872    14.6709     1.3209 C         1 MOL       0.0000
   1212 C400         7.1404    20.7713    11.9738 C         1 MOL       0.0000
   1213 C401         5.3876    21.9349     1.1091 C         1 MOL       0.0000
   1214 C402         2.1062    15.3498    11.8123 C         1 MOL       0.0000
   1215 C403        16.7919    14.3054    11.8268 C         1 MOL       0.0000
   1216 C404         6.6768    22.4151     1.1583 C         1 MOL       0.0000
   1217 C405        13.6297     7.5335    11.9759 C         1 MOL       0.0000
   1218 C406        18.3089    13.2698     1.4025 C         1 MOL       0.0000
   1219 N61         18.3639    12.6709     2.6406 N         1 MOL       0.0000
   1220 N62         16.2129    14.1226    10.5878 N         1 MOL       0.0000
   1221 N63         17.6025    18.5426     7.7110 N         1 MOL       0.0000
   1222 N64         15.7054     9.8060     9.3580 N         1 MOL       0.0000
   1223 O241        16.8598    18.8308     5.1439 O         1 MOL       0.0000
   1224 O242         6.4360    15.5963     8.0341 O         1 MOL       0.0000
   1225 O243        13.6862    11.4633     9.7558 O         1 MOL       0.0000
   1226 O244        10.2335    23.9119     3.4461 O         1 MOL       0.0000
   1227 O245        11.0698    22.5250     5.0322 O         1 MOL       0.0000
   1228 O246        12.1343    11.7073     8.1292 O         1 MOL       0.0000
   1229 O247        18.4480    18.5065     3.5664 O         1 MOL       0.0000
   1230 O248         5.6250    16.9834     9.6321 O         1 MOL       0.0000
   1231 O249        15.7754    18.2516     2.5674 O         1 MOL       0.0000
   1232 O250         8.1292    16.1102    10.1324 O         1 MOL       0.0000
   1233 O251        16.7142    20.5389     3.0173 O         1 MOL       0.0000
   1234 O252         6.3770    14.3855    10.6251 O         1 MOL       0.0000
   1235 O253        10.9835    11.1776    10.7198 O         1 MOL       0.0000
   1236 O254        12.7520    23.0730     2.9479 O         1 MOL       0.0000
   1237 O255        11.9375    13.4391    10.2557 O         1 MOL       0.0000
   1238 O256        11.0458    21.3159     2.4305 O         1 MOL       0.0000
   1239 O257        14.2033    18.9886     5.2967 O         1 MOL       0.0000
   1240 O258         7.5684    13.1091     7.9473 O         1 MOL       0.0000
   1241 O259        13.3548    10.3234    12.0219 O         1 MOL       0.0000
   1242 O260        11.6023    24.9966     1.1739 O         1 MOL       0.0000
   1243 O261        14.1569    13.1115    12.0168 O         1 MOL       0.0000
   1244 O262         9.3663    23.1609     1.1138 O         1 MOL       0.0000
   1245 O263         9.3879    11.7796     8.0269 O         1 MOL       0.0000
   1246 O264        12.2403    20.0894     5.1576 O         1 MOL       0.0000
   1247 O265        18.8951    20.1861     1.1600 O         1 MOL       0.0000
   1248 O266         4.7408    16.2257    11.9478 O         1 MOL       0.0000
   1249 O267        18.0995    17.4318     1.1894 O         1 MOL       0.0000
   1250 O268         7.0090    18.0080    12.0291 O         1 MOL       0.0000
   1251 O269        13.9672    20.6431     3.0684 O         1 MOL       0.0000
   1252 O270         9.2653    13.6393    10.0495 O         1 MOL       0.0000
   1253 O271        16.4213    19.4179     0.1356 O         1 MOL       0.0000
   1254 O272         7.2187    15.4540    13.0639 O         1 MOL       0.0000
   1255 H361        13.1873    15.5243     8.5583 H         1 MOL       0.0000
   1256 H362         2.8804    24.6676     6.1468 H         1 MOL       0.0000
   1257 H363        13.9385    24.2658     5.6324 H         1 MOL       0.0000
   1258 H364        14.1813    17.0632     6.8425 H         1 MOL       0.0000
   1259 H365         9.5260    17.7834     8.4575 H         1 MOL       0.0000
   1260 H366        21.6120    11.3995     7.0517 H         1 MOL       0.0000
   1261 H367        10.8579    15.8873     9.3256 H         1 MOL       0.0000
   1262 H368        10.5294    19.3333     6.7539 H         1 MOL       0.0000
   1263 H369        15.2755    22.4971     4.5114 H         1 MOL       0.0000
   1264 H370        17.7322    22.4014     4.8018 H         1 MOL       0.0000
   1265 C407        12.4081    18.2786     6.6898 C         1 MOL       0.0000
   1266 C408        11.2982    16.5638     8.5944 C         1 MOL       0.0000
   1267 C409        15.7718    23.2252     5.1524 C         1 MOL       0.0000
   1268 C410         7.5669    11.0897     6.6824 C         1 MOL       0.0000
   1269 C411        11.0954    18.4919     7.1470 C         1 MOL       0.0000
   1270 C412        12.6131    16.3589     8.1598 C         1 MOL       0.0000
   1271 C413        15.0186    24.2341     5.7647 C         1 MOL       0.0000
   1272 C414         1.7996    24.6780     6.0234 C         1 MOL       0.0000
   1273 C415        17.1587    23.1681     5.3197 C         1 MOL       0.0000
   1274 C416        22.1743    10.5944     6.5851 C         1 MOL       0.0000
   1275 C417        13.1678    17.2135     7.2067 C         1 MOL       0.0000
   1276 C418        10.5417    17.6313     8.0959 C         1 MOL       0.0000
   1277 N65         14.7590    24.6705     1.2802 N         1 MOL       0.0000
   1278 N66         11.5574    16.7637    12.9220 N         1 MOL       0.0000
   1279 C419        14.6408    25.3827     0.0811 C         1 MOL       0.0000
   1280 C420        10.8545    17.7499    12.2601 C         1 MOL       0.0000
   1281 C421        13.8718    16.7660    11.9054 C         1 MOL       0.0000
   1282 C422        14.2955    25.1901     2.6066 C         1 MOL       0.0000
   1283 C423        15.7824    23.7961     1.1170 C         1 MOL       0.0000
   1284 C424        12.6441    15.9588    12.3219 C         1 MOL       0.0000
   1285 H371         9.4906    19.2647    13.1015 H         1 MOL       0.0000
   1286 H372        11.0250    17.9877    11.2132 H         1 MOL       0.0000
   1287 H373        13.6211    17.5548    11.1826 H         1 MOL       0.0000
   1288 H374        13.9315    26.2101     2.4696 H         1 MOL       0.0000
   1289 H375        14.3571    17.2474    12.7618 H         1 MOL       0.0000
   1290 H376        13.5135    24.5550     2.9950 H         1 MOL       0.0000
   1291 H377        14.5847    16.0911    11.4115 H         1 MOL       0.0000
   1292 H378        12.2084    15.4340    11.4619 H         1 MOL       0.0000
   1293 H379        15.1331    25.1982     3.3099 H         1 MOL       0.0000
   1294 H380        16.3130    23.2860     1.9089 H         1 MOL       0.0000
   1295 H381        12.8896    15.1975    13.0684 H         1 MOL       0.0000
   1296 N67         16.2303    27.9692     0.1092 N         1 MOL       0.0000
   1297 C425         9.8386    14.5803     1.7405 C         1 MOL       0.0000
   1298 C426        19.1348     8.3355    10.8872 C         1 MOL       0.0000
   1299 O273        23.2424    13.6289     2.6452 O         1 MOL       0.0000
   1300 O274        18.1058    25.6127     1.4299 O         1 MOL       0.0000
   1301 O275        10.7166    20.4720    10.9425 O         1 MOL       0.0000
   1302 O276        13.4307    20.3410     9.8444 O         1 MOL       0.0000
   1303 F73          9.4587    16.0501     2.2258 F         1 MOL       0.0000
   1304 F74         19.5539    10.0899    11.9146 F         1 MOL       0.0000
   1305 F75         11.4109    15.3868     1.0298 F         1 MOL       0.0000
   1306 F76          9.2202    14.0034     3.8024 F         1 MOL       0.0000
   1307 F77         18.0320     9.1706    10.4319 F         1 MOL       0.0000
   1308 F78         12.0471    22.1262     8.9299 F         1 MOL       0.0000
   1309 S25         17.2913    27.2704     1.3456 S         1 MOL       0.0000
   1310 S26         12.0807    20.8437    11.3119 S         1 MOL       0.0000
   1311 N68         12.6234    15.6048     3.2798 N         1 MOL       0.0000
   1312 N69         10.7870    16.3756     4.2699 N         1 MOL       0.0000
   1313 C427        13.5743    15.1963     2.1775 C         1 MOL       0.0000
   1314 C428        11.5587    16.4006     3.1566 C         1 MOL       0.0000
   1315 C429        12.4683    14.8981     4.4841 C         1 MOL       0.0000
   1316 C430        13.4298    13.8181     1.4771 C         1 MOL       0.0000
   1317 C431        11.3352    15.3746     5.0844 C         1 MOL       0.0000
   1318 C432         9.3363    16.7518     4.4243 C         1 MOL       0.0000
   1319 H382        14.5688    15.2776     2.6297 H         1 MOL       0.0000
   1320 H383        13.4927    15.9977     1.4332 H         1 MOL       0.0000
   1321 H384        11.3720    17.0271     2.2789 H         1 MOL       0.0000
   1322 H385        14.3491    13.6348     0.8971 H         1 MOL       0.0000
   1323 H386        13.2175    14.2084     4.8402 H         1 MOL       0.0000
   1324 H387         9.1860    17.3139     5.3459 H         1 MOL       0.0000
   1325 H388         8.9891    17.3313     3.5645 H         1 MOL       0.0000
   1326 H389        13.2849    12.9989     2.1867 H         1 MOL       0.0000
   1327 H390        10.8473    15.0981     6.0046 H         1 MOL       0.0000
   1328 H391        12.5869    13.7845     0.7798 H         1 MOL       0.0000
   1329 H392         8.7654    15.8081     4.4096 H         1 MOL       0.0000
   1330 N70          8.8519    14.5981     1.0251 N         1 MOL       0.0000
   1331 C433        23.9554    12.2684     3.5213 C         1 MOL       0.0000
   1332 C434        19.0047     7.5218    12.2684 C         1 MOL       0.0000
   1333 O277        10.1649    17.1528     0.2703 O         1 MOL       0.0000
   1334 O278         4.4221    26.9987     2.6007 O         1 MOL       0.0000
   1335 O279         5.7867     7.8730    12.0286 O         1 MOL       0.0000
   1336 O280         3.8433    27.0500     0.0972 O         1 MOL       0.0000
   1337 F79          7.2225    13.2506     4.5418 F         1 MOL       0.0000
   1338 F80         17.5219     8.0664    12.8927 F         1 MOL       0.0000
   1339 F81         16.0728    26.2742     2.0193 F         1 MOL       0.0000
   1340 F82         17.4489    25.4671     3.7339 F         1 MOL       0.0000
   1341 F83         20.1043     8.0756    10.6617 F         1 MOL       0.0000
   1342 F84         12.8336    19.9239    11.8133 F         1 MOL       0.0000
   1343 S27          5.0757     8.7659    12.9211 S         1 MOL       0.0000
   1344 S28          3.4768    27.4014     1.6039 S         1 MOL       0.0000
   1345 Ti57         1.9926     9.2198    24.3744 Ti        1 MOL       0.0000
   1346 Ti58        12.8230    12.1010    15.0096 Ti        1 MOL       0.0000
   1347 Ti59         6.0892     5.2836    22.5544 Ti        1 MOL       0.0000
   1348 Ti60         7.6004    14.4457    16.7814 Ti        1 MOL       0.0000
   1349 Ti61         6.6019    16.1240    14.8770 Ti        1 MOL       0.0000
   1350 Ti62         7.9775     5.0292    24.5078 Ti        1 MOL       0.0000
   1351 Ti63         2.9418     7.4839    22.4829 Ti        1 MOL       0.0000
   1352 Ti64        10.8352    12.4035    16.8571 Ti        1 MOL       0.0000
   1353 H393         2.4944    13.1168    24.1549 H         1 MOL       0.0000
   1354 H394        13.6318     8.1949    15.3303 H         1 MOL       0.0000
   1355 H395        -1.9673     8.4631    23.9920 H         1 MOL       0.0000
   1356 H396        16.2052    14.1053    15.2102 H         1 MOL       0.0000
   1357 H397         8.9531     0.9947    24.1219 H         1 MOL       0.0000
   1358 H398         2.5433    15.5341    15.1991 H         1 MOL       0.0000
   1359 H399         2.4613     7.4212    26.0989 H         1 MOL       0.0000
   1360 H400        10.9475    11.8583    13.3096 H         1 MOL       0.0000
   1361 H401         8.4874     4.3621    18.9967 H         1 MOL       0.0000
   1362 H402         5.8770    16.2827    20.4003 H         1 MOL       0.0000
   1363 H403        -1.1309    10.8725    22.1270 H         1 MOL       0.0000
   1364 H404        15.5778    10.0166    17.3156 H         1 MOL       0.0000
   1365 H405         1.1702     9.4251    18.7932 H         1 MOL       0.0000
   1366 H406         3.5018    17.9519    17.2302 H         1 MOL       0.0000
   1367 H407         6.9941    19.2268    15.7325 H         1 MOL       0.0000
   1368 H408        13.4740     6.1761    16.5328 H         1 MOL       0.0000
   1369 H409         9.6931    14.1258    15.4428 H         1 MOL       0.0000
   1370 H410         5.0085     7.1320    23.8480 H         1 MOL       0.0000
   1371 H411        12.2122     6.9641    22.8975 H         1 MOL       0.0000
   1372 H412        10.7311     6.4950    23.6448 H         1 MOL       0.0000
   1373 H413        12.7863    11.3977    21.7985 H         1 MOL       0.0000
   1374 H414        12.2166    11.7563    20.1800 H         1 MOL       0.0000
   1375 H415        11.7234     2.0092    22.7074 H         1 MOL       0.0000
   1376 H416        10.4442     3.1098    23.1648 H         1 MOL       0.0000
   1377 C435        13.4011    11.3597    17.8731 C         1 MOL       0.0000
   1378 C436         1.0320     9.4811    21.5274 C         1 MOL       0.0000
   1379 C437         8.6698     4.2729    21.6297 C         1 MOL       0.0000
   1380 C438         5.6643    16.4162    17.7407 C         1 MOL       0.0000
   1381 C439        14.2971    10.7554    18.8683 C         1 MOL       0.0000
   1382 C440         0.1001    10.1062    20.5503 C         1 MOL       0.0000
   1383 C441         9.6100     3.6585    20.6825 C         1 MOL       0.0000
   1384 C442         4.7745    17.0630    18.7405 C         1 MOL       0.0000
   1385 C443        14.0483    10.8303    20.2747 C         1 MOL       0.0000
   1386 C444         0.3165     9.9862    19.1623 C         1 MOL       0.0000
   1387 C445        10.7394     2.8982    21.1356 C         1 MOL       0.0000
   1388 C446         3.6798    17.8360    18.2956 C         1 MOL       0.0000
   1389 C447         5.0290    16.8923    20.0954 C         1 MOL       0.0000
   1390 C448         9.3622     3.7906    19.2986 C         1 MOL       0.0000
   1391 C449        15.4308    10.0564    18.3926 C         1 MOL       0.0000
   1392 C450        -1.0001    10.7986    21.0490 C         1 MOL       0.0000
   1393 C451        13.6128     8.2740    13.1862 C         1 MOL       0.0000
   1394 C452         7.1431    20.0656    13.2112 C         1 MOL       0.0000
   1395 C453        11.4623     6.9711    26.1552 C         1 MOL       0.0000
   1396 C454        -1.8960     8.5135    26.1358 C         1 MOL       0.0000
   1397 C455         8.3472    12.1025    18.7460 C         1 MOL       0.0000
   1398 C456         3.5911     5.0082    20.6641 C         1 MOL       0.0000
   1399 C457         8.8420     2.6628    26.2580 C         1 MOL       0.0000
   1400 C458         7.0504    18.6321    13.1737 C         1 MOL       0.0000
   1401 C459        10.1645     6.3543    26.2020 C         1 MOL       0.0000
   1402 C460        -0.4937     8.9279    26.1603 C         1 MOL       0.0000
   1403 C461        13.6522     7.6049    14.4159 C         1 MOL       0.0000
   1404 C462         2.5054    13.7053    25.0688 C         1 MOL       0.0000
   1405 C463         0.7526    14.8689    14.2041 C         1 MOL       0.0000
   1406 C464        -2.5288     8.2838    24.9073 C         1 MOL       0.0000
   1407 C465        12.1569     7.2394    24.9218 C         1 MOL       0.0000
   1408 C466         2.0418    15.3491    14.2533 C         1 MOL       0.0000
   1409 C467         8.9947     0.4675    25.0709 C         1 MOL       0.0000
   1410 C468        13.6739     6.2038    14.4975 C         1 MOL       0.0000
   1411 N71         13.7289     5.6049    15.7356 N         1 MOL       0.0000
   1412 N72         11.5779     7.0566    23.6828 N         1 MOL       0.0000
   1413 N73         12.9675    11.4766    20.8060 N         1 MOL       0.0000
   1414 N74         11.0704     2.7400    22.4530 N         1 MOL       0.0000
   1415 O281        12.2248    11.7648    18.2389 O         1 MOL       0.0000
   1416 O282         1.8010     8.5303    21.1291 O         1 MOL       0.0000
   1417 O283         9.0512     4.3973    22.8508 O         1 MOL       0.0000
   1418 O284         5.5985    16.8459    16.5412 O         1 MOL       0.0000
   1419 O285         6.4348    15.4590    18.1272 O         1 MOL       0.0000
   1420 O286         7.4993     4.6413    21.2242 O         1 MOL       0.0000
   1421 O287        13.8130    11.4405    16.6614 O         1 MOL       0.0000
   1422 O288         0.9900     9.9174    22.7271 O         1 MOL       0.0000
   1423 O289        11.1404    11.1856    15.6624 O         1 MOL       0.0000
   1424 O290         3.4942     9.0442    23.2274 O         1 MOL       0.0000
   1425 O291        12.0792    13.4729    16.1123 O         1 MOL       0.0000
   1426 O292         1.7420     7.3195    23.7201 O         1 MOL       0.0000
   1427 O293         6.3486     4.1116    23.8148 O         1 MOL       0.0000
   1428 O294         8.1170    16.0070    16.0429 O         1 MOL       0.0000
   1429 O295         7.3025     6.3731    23.3507 O         1 MOL       0.0000
   1430 O296         6.4108    14.2499    15.5255 O         1 MOL       0.0000
   1431 O297         9.5683    11.9226    18.3917 O         1 MOL       0.0000
   1432 O298         2.9334     6.0431    21.0423 O         1 MOL       0.0000
   1433 O299         8.7198     3.2574    25.1169 O         1 MOL       0.0000
   1434 O300         6.9673    17.9306    14.2689 O         1 MOL       0.0000
   1435 O301         9.5219     6.0455    25.1118 O         1 MOL       0.0000
   1436 O302         4.7313    16.0949    14.2088 O         1 MOL       0.0000
   1437 O303         4.7529     4.7136    21.1219 O         1 MOL       0.0000
   1438 O304         7.6053    13.0234    18.2526 O         1 MOL       0.0000
   1439 O305        14.2601    13.1201    14.2550 O         1 MOL       0.0000
   1440 O306         0.1058     9.1597    25.0428 O         1 MOL       0.0000
   1441 O307        13.4645    10.3658    14.2844 O         1 MOL       0.0000
   1442 O308         2.3740    10.9420    25.1241 O         1 MOL       0.0000
   1443 O309         9.3322    13.5771    16.1634 O         1 MOL       0.0000
   1444 O310         4.6303     6.5733    23.1445 O         1 MOL       0.0000
   1445 O311        11.7863    12.3519    13.2306 O         1 MOL       0.0000
   1446 O312         2.5837     8.3880    26.1589 O         1 MOL       0.0000
   1447 H417         8.5523     8.4583    21.6533 H         1 MOL       0.0000
   1448 H418        -1.7546    17.6016    19.2418 H         1 MOL       0.0000
   1449 H419         9.3035    17.1998    18.7274 H         1 MOL       0.0000
   1450 H420         9.5463     9.9972    19.9375 H         1 MOL       0.0000
   1451 H421         4.8910    10.7174    21.5525 H         1 MOL       0.0000
   1452 H422        16.9770     4.3335    20.1467 H         1 MOL       0.0000
   1453 H423         6.2229     8.8213    22.4206 H         1 MOL       0.0000
   1454 H424         5.8944    12.2673    19.8489 H         1 MOL       0.0000
   1455 H425        10.6405    15.4311    17.6064 H         1 MOL       0.0000
   1456 H426        13.0972    15.3354    17.8968 H         1 MOL       0.0000
   1457 C469         7.7731    11.2126    19.7848 C         1 MOL       0.0000
   1458 C470         6.6632     9.4978    21.6894 C         1 MOL       0.0000
   1459 C471        11.1368    16.1592    18.2474 C         1 MOL       0.0000
   1460 C472         2.9319     4.0237    19.7774 C         1 MOL       0.0000
   1461 C473         6.4604    11.4259    20.2420 C         1 MOL       0.0000
   1462 C474         7.9781     9.2929    21.2548 C         1 MOL       0.0000
   1463 C475        10.3836    17.1681    18.8597 C         1 MOL       0.0000
   1464 C476        -2.8354    17.6120    19.1184 C         1 MOL       0.0000
   1465 C477        12.5237    16.1021    18.4147 C         1 MOL       0.0000
   1466 C478        17.5393     3.5284    19.6801 C         1 MOL       0.0000
   1467 C479         8.5328    10.1475    20.3017 C         1 MOL       0.0000
   1468 C480         5.9067    10.5653    21.1909 C         1 MOL       0.0000
   1469 N75         10.1240    17.6045    14.3752 N         1 MOL       0.0000
   1470 N76          6.9224     9.6977    26.0170 N         1 MOL       0.0000
   1471 C481        10.0058    18.3167    13.1761 C         1 MOL       0.0000
   1472 C482         6.2195    10.6839    25.3551 C         1 MOL       0.0000
   1473 C483         9.2368     9.7000    25.0004 C         1 MOL       0.0000
   1474 C484         9.6605    18.1241    15.7016 C         1 MOL       0.0000
   1475 C485        11.1474    16.7301    14.2120 C         1 MOL       0.0000
   1476 C486         8.0091     8.8928    25.4169 C         1 MOL       0.0000
   1477 H427         4.8556    12.1987    26.1965 H         1 MOL       0.0000
   1478 H428         6.3900    10.9217    24.3082 H         1 MOL       0.0000
   1479 H429         8.9861    10.4888    24.2776 H         1 MOL       0.0000
   1480 H430         9.2965    19.1441    15.5646 H         1 MOL       0.0000
   1481 H431         9.7221    10.1814    25.8568 H         1 MOL       0.0000
   1482 H432         8.8785    17.4890    16.0900 H         1 MOL       0.0000
   1483 H433         9.9497     9.0251    24.5065 H         1 MOL       0.0000
   1484 H434         7.5734     8.3680    24.5569 H         1 MOL       0.0000
   1485 H435        10.4981    18.1322    16.4049 H         1 MOL       0.0000
   1486 H436        11.6780    16.2200    15.0039 H         1 MOL       0.0000
   1487 H437         8.2546     8.1315    26.1634 H         1 MOL       0.0000
   1488 N77         11.5953    20.9032    13.2042 N         1 MOL       0.0000
   1489 C487         5.2036     7.5143    14.8355 C         1 MOL       0.0000
   1490 C488        14.4998     1.2695    23.9822 C         1 MOL       0.0000
   1491 O313        18.6074     6.5629    15.7402 O         1 MOL       0.0000
   1492 O314        13.4708    18.5467    14.5249 O         1 MOL       0.0000
   1493 O315         6.0816    13.4060    24.0375 O         1 MOL       0.0000
   1494 O316         8.7957    13.2750    22.9394 O         1 MOL       0.0000
   1495 F85          4.8237     8.9841    15.3208 F         1 MOL       0.0000
   1496 F86         14.9189     3.0239    25.0096 F         1 MOL       0.0000
   1497 F87          6.7759     8.3208    14.1248 F         1 MOL       0.0000
   1498 F88          4.5852     6.9374    16.8974 F         1 MOL       0.0000
   1499 F89         13.3970     2.1046    23.5269 F         1 MOL       0.0000
   1500 F90          7.4121    15.0602    22.0249 F         1 MOL       0.0000
   1501 S29         12.6563    20.2044    14.4406 S         1 MOL       0.0000
   1502 S30          7.4457    13.7777    24.4069 S         1 MOL       0.0000
   1503 N78          7.9884     8.5388    16.3748 N         1 MOL       0.0000
   1504 N79          6.1520     9.3096    17.3649 N         1 MOL       0.0000
   1505 C489         8.9393     8.1303    15.2725 C         1 MOL       0.0000
   1506 C490         6.9237     9.3346    16.2516 C         1 MOL       0.0000
   1507 C491         7.8333     7.8321    17.5791 C         1 MOL       0.0000
   1508 C492         8.7948     6.7521    14.5721 C         1 MOL       0.0000
   1509 C493         6.7002     8.3086    18.1794 C         1 MOL       0.0000
   1510 C494         4.7013     9.6858    17.5193 C         1 MOL       0.0000
   1511 H438         9.9338     8.2116    15.7247 H         1 MOL       0.0000
   1512 H439         8.8577     8.9317    14.5282 H         1 MOL       0.0000
   1513 H440         6.7370     9.9611    15.3739 H         1 MOL       0.0000
   1514 H441         9.7141     6.5688    13.9921 H         1 MOL       0.0000
   1515 H442         8.5825     7.1424    17.9352 H         1 MOL       0.0000
   1516 H443         4.5510    10.2479    18.4409 H         1 MOL       0.0000
   1517 H444         4.3541    10.2653    16.6595 H         1 MOL       0.0000
   1518 H445         8.6499     5.9329    15.2817 H         1 MOL       0.0000
   1519 H446         6.2123     8.0321    19.0996 H         1 MOL       0.0000
   1520 H447         7.9519     6.7185    13.8748 H         1 MOL       0.0000
   1521 H448         4.1304     8.7421    17.5046 H         1 MOL       0.0000
   1522 N80          4.2169     7.5321    14.1201 N         1 MOL       0.0000
   1523 C495        19.3204     5.2024    16.6163 C         1 MOL       0.0000
   1524 C496        14.3697     0.4558    25.3634 C         1 MOL       0.0000
   1525 O317         5.5299    10.0868    13.3653 O         1 MOL       0.0000
   1526 O318        -0.2129    19.9327    15.6957 O         1 MOL       0.0000
   1527 O319         1.1517     0.8070    25.1236 O         1 MOL       0.0000
   1528 O320        -0.7917    19.9840    13.1922 O         1 MOL       0.0000
   1529 F91          2.5875     6.1846    17.6368 F         1 MOL       0.0000
   1530 F92         12.8869     1.0004    25.9877 F         1 MOL       0.0000
   1531 F93         11.4378    19.2082    15.1143 F         1 MOL       0.0000
   1532 F94         12.8139    18.4011    16.8289 F         1 MOL       0.0000
   1533 F95         15.4693     1.0096    23.7567 F         1 MOL       0.0000
   1534 F96          8.1986    12.8579    24.9083 F         1 MOL       0.0000
   1535 S31          0.4407     1.6999    26.0161 S         1 MOL       0.0000
   1536 S32         -1.1582    20.3354    14.6989 S         1 MOL       0.0000
@<TRIPOS>BOND
     1     1    78 1
     2     1    96 1
     3     7    88 1
     4     7   100 1
     5     1     7 1
     6     1    80 1
     7     1    82 1
     8     7    72 1
     9     7    80 1
    10     7    82 1
    11     1   102 1
    12     1   197 1
    13     1    98 1
    14     2     8 1
    15     2    79 1
    16     2    81 1
    17     2   101 1
    18     2    97 1
    19     2    77 1
    20     2    95 1
    21     3    93 1
    22     3   100 1
    23     3    76 1
    24     3    83 1
    25     3    85 1
    26     3     6 1
    27     4    86 1
    28     4    94 1
    29     4     5 1
    30     4    84 1
    31     4    75 1
    32     4    99 1
    33     5    92 1
    34     5    86 1
    35     5    74 1
    36     5    84 1
    37     5    90 1
    38     6    83 1
    39     6    85 1
    40     6   194 1
    41     6   293 1
    42   194   293 1
    43   208   293 1
    44   194   200 1
    45   194   271 1
    46   194   273 1
    47     6    73 1
    48     6    89 1
    49     6    91 1
    50   194   287 1
    51   194   289 1
    52   194   269 1
    53     8    79 1
    54     8    81 1
    55     8    99 1
    56    16   101 1
    57    25    99 1
    58     8    71 1
    59     8    87 1
    60     9    60 1
    61    59    66 1
    62    10    59 1
    63    49    59 1
    64    34    38 1
    65    34    78 1
    66    11    62 1
    67    34    72 1
    68    12   829 1
    69   829   832 1
    70    31    70 1
    71    32    70 1
    72    43    70 1
    73    13    65 1
    74    14    64 1
    75   197   284 1
    76   197   266 1
    77    15   102 1
    78   102   197 1
    79   197   276 1
    80   197   278 1
    81   197   282 1
    82    17    46 1
    83    36    40 1
    84    45   427 1
    85    36    74 1
    86    18    45 1
    87    36    75 1
    88    19    48 1
    89    20    47 1
    90    47   810 1
    91    21    42 1
    92   166   173 1
    93   166   172 1
    94   166   177 1
    95    22    44 1
    96    40    44 1
    97    44   430 1
    98    40    45 1
    99    56    90 1
   100    23   451 1
   101    50    56 1
   102    50   450 1
   103   408   451 1
   104   450   451 1
   105    24    67 1
   106    66    67 1
   107    26   100 1
   108   118   123 1
   109   103   118 1
   110   107   124 1
   111   109   114 1
   112   114   118 1
   113   114   124 1
   114    35    76 1
   115    39    43 1
   116    39    46 1
   117    35    39 1
   118    35    73 1
   119    27    68 1
   120    28    68 1
   121    29    69 1
   122    30    69 1
   123    33    71 1
   124    37    47 1
   125    41   816 1
   126    33    77 1
   127    33    37 1
   128    37    41 1
   129    41    69 1
   130    38    42 1
   131    38    48 1
   132    51    57 1
   133    57    91 1
   134    57   287 1
   135    51    63 1
   136    51  1021 1
   137    52    58 1
   138    52    62 1
   139    52   256 1
   140    58    96 1
   141    58   284 1
   142   113   123 1
   143   117   124 1
   144    53    94 1
   145    53   113 1
   146   110   117 1
   147   113   117 1
   148    53    87 1
   149    54   116 1
   150    54    88 1
   151    54    93 1
   152   251   258 1
   153    55   241 1
   154    65   241 1
   155   241   251 1
   156    55    89 1
   157    55   289 1
   158    60   242 1
   159    98   248 1
   160   242   248 1
   161   242   642 1
   162   248   282 1
   163   642   643 1
   164    60   449 1
   165    61    64 1
   166   129   132 1
   167    63    68 1
   168   129   135 1
   169   129   137 1
   170   129   139 1
   171    63   830 1
   172  1021  1024 1
   173   104   120 1
   174   105   119 1
   175   111   115 1
   176   115   119 1
   177   119   506 1
   178   115   121 1
   179   506  1268 1
   180   106   123 1
   181   108   122 1
   182   122   884 1
   183   112   121 1
   184   121   888 1
   185   872   888 1
   186   888  1268 1
   187   120   500 1
   188   160   166 1
   189   160   162 1
   190   160   165 1
   191   163   165 1
   192   163   171 1
   193   165   175 1
   194   125   130 1
   195   125   131 1
   196   130   138 1
   197   130   141 1
   198   131   142 1
   199   125   127 1
   200   130   136 1
   201   126   128 1
   202   126   132 1
   203   126   323 1
   204   132   140 1
   205   132   143 1
   206   317   323 1
   207   323   334 1
   208   128   134 1
   209   128   319 1
   210   317   319 1
   211   317   322 1
   212   144   157 1
   213   531   563 1
   214   133   319 1
   215   158   190 1
   216   158   336 1
   217   336   349 1
   218   349   379 1
   219   349   723 1
   220   349   755 1
   221   158   530 1
   222   158   564 1
   223   336   564 1
   224   349  1152 1
   225   349  1522 1
   226   149   158 1
   227   145   151 1
   228   145   178 1
   229   159   162 1
   230   162   169 1
   231   159   163 1
   232   159   161 1
   233   146   155 1
   234   146   189 1
   235   146   180 1
   236   147   179 1
   237   179   953 1
   238   179   922 1
   239   157   187 1
   240   157   531 1
   241   563  1337 1
   242   148   157 1
   243   148   960 1
   244   157   563 1
   245   157   960 1
   246   157  1330 1
   247   188   563 1
   248   950   960 1
   249   952   960 1
   250   960  1297 1
   251  1297  1330 1
   252   563  1306 1
   253  1297  1303 1
   254   150   158 1
   255   180   186 1
   256   415   454 1
   257   530   539 1
   258   530   564 1
   259   530   573 1
   260   161   164 1
   261   161   167 1
   262   161   168 1
   263   164   176 1
   264   164   170 1
   265   164   174 1
   266   182   192 1
   267   184   192 1
   268   192   529 1
   269   183   191 1
   270   356   366 1
   271   356   368 1
   272   356   362 1
   273   191   370 1
   274   191   373 1
   275   337   370 1
   276   337   343 1
   277   193   270 1
   278   193   274 1
   279   193   288 1
   280   193   199 1
   281   193   272 1
   282   193   294 1
   283   207   294 1
   284   218   292 1
   285   193   290 1
   286   195   285 1
   287   195   292 1
   288   195   268 1
   289   195   198 1
   290   195   275 1
   291   195   277 1
   292   198   265 1
   293   198   275 1
   294   198   277 1
   295   198   281 1
   296   198   283 1
   297   196   286 1
   298   196   291 1
   299   196   197 1
   300   196   267 1
   301   196   276 1
   302   196   278 1
   303   297   311 1
   304   199   264 1
   305   199   274 1
   306   199   280 1
   307   199   272 1
   308   199   292 1
   309   200   291 1
   310   200   263 1
   311   200   271 1
   312   200   273 1
   313   200   279 1
   314   201   252 1
   315   252   641 1
   316   202   251 1
   317   212   239 1
   318   239  1002 1
   319   203   254 1
   320   244   254 1
   321   244   250 1
   322   204  1021 1
   323   205   257 1
   324   247   281 1
   325   206   256 1
   326   228   232 1
   327   228   266 1
   328   232   237 1
   329   232   236 1
   330   228   267 1
   331   209   238 1
   332   227   268 1
   333   227   265 1
   334   227   231 1
   335   210   237 1
   336   211   240 1
   337   213   234 1
   338   226   230 1
   339   226   264 1
   340   230   234 1
   341   226   270 1
   342   230   240 1
   343   214   236 1
   344   236   622 1
   345   215   643 1
   346   600   643 1
   347   216   259 1
   348   217   291 1
   349   303   307 1
   350   304   313 1
   351   307   313 1
   352   307   311 1
   353   313  1080 1
   354   243   249 1
   355   219   260 1
   356   243   255 1
   357   255   260 1
   358   255  1022 1
   359   224   262 1
   360   249   283 1
   361   220   260 1
   362   221   261 1
   363   222   261 1
   364   223   262 1
   365   225   263 1
   366   225   269 1
   367   225   229 1
   368   233   261 1
   369   229   239 1
   370   233  1008 1
   371   979  1008 1
   372   229   233 1
   373   231   238 1
   374   235   262 1
   375   231   235 1
   376   237   619 1
   377   619   646 1
   378   245   286 1
   379   245   305 1
   380   245   279 1
   381   246   280 1
   382   246   285 1
   383   246   308 1
   384   250   288 1
   385   253   256 1
   386   258   259 1
   387   295   310 1
   388   301   306 1
   389   306   310 1
   390   310   315 1
   391   306   316 1
   392   296   312 1
   393   298   315 1
   394   299   316 1
   395   300   314 1
   396   305   315 1
   397   302   309 1
   398   305   309 1
   399   309   316 1
   400   311   698 1
   401  1080  1460 1
   402   312   692 1
   403   314  1076 1
   404  1014  1048 1
   405  1014  1076 1
   406  1014  1053 1
   407   318   324 1
   408   321   324 1
   409   324   332 1
   410   324   335 1
   411   318   320 1
   412   321   327 1
   413   321   329 1
   414   321   331 1
   415   320   326 1
   416   341   350 1
   417   342   350 1
   418   350   382 1
   419   350   722 1
   420   350   756 1
   421   322   330 1
   422   322   328 1
   423   322   333 1
   424   380   755 1
   425   723   755 1
   426   755  1529 1
   427   755  1498 1
   428   372   378 1
   429   338   347 1
   430   338   372 1
   431   338   381 1
   432   339   371 1
   433  1126  1132 1
   434  1126  1133 1
   435  1126  1137 1
   436   340   349 1
   437   340  1152 1
   438  1144  1152 1
   439  1152  1489 1
   440   358   364 1
   441   358   365 1
   442   358   369 1
   443   352   358 1
   444   353   356 1
   445   353   360 1
   446   351   353 1
   447   351   354 1
   448   351   355 1
   449   352   354 1
   450   352   357 1
   451   354   361 1
   452   355   357 1
   453   355   363 1
   454   357   367 1
   455   353   359 1
   456   371  1114 1
   457   371  1145 1
   458   374   384 1
   459   375   383 1
   460   376   384 1
   461   384   721 1
   462   418   422 1
   463   385   480 1
   464   385   466 1
   465   391   466 1
   466   391   472 1
   467   385   391 1
   468   385   462 1
   469   385   464 1
   470   391   456 1
   471   391   464 1
   472   418   456 1
   473   418   462 1
   474   385   482 1
   475   385   486 1
   476   385   581 1
   477   391   484 1
   478   386   392 1
   479   386   463 1
   480   386   481 1
   481   386   461 1
   482   386   465 1
   483   386   479 1
   484   386   485 1
   485   387   460 1
   486   387   467 1
   487   387   469 1
   488   387   477 1
   489   387   484 1
   490   410   484 1
   491   387   390 1
   492   388   470 1
   493   388   478 1
   494   388   389 1
   495   388   459 1
   496   388   483 1
   497   388   468 1
   498   389   470 1
   499   389   458 1
   500   389   474 1
   501   389   476 1
   502   389   468 1
   503   390   467 1
   504   390   469 1
   505   390   677 1
   506   578   677 1
   507   578   584 1
   508   578   655 1
   509   578   657 1
   510   390   473 1
   511   578   673 1
   512   390   457 1
   513   390   475 1
   514   390   578 1
   515   441   475 1
   516   441   671 1
   517   578   671 1
   518   578   653 1
   519   392   463 1
   520   392   483 1
   521   409   483 1
   522   392   471 1
   523   392   465 1
   524   400   485 1
   525   392   455 1
   526   393   444 1
   527   443   450 1
   528   394   443 1
   529   433   443 1
   530   403   432 1
   531   395   446 1
   532   396  1213 1
   533  1213  1216 1
   534   416   454 1
   535   427   454 1
   536   397   449 1
   537   398   448 1
   538   581   668 1
   539   581   662 1
   540   399   486 1
   541   486   581 1
   542   581   666 1
   543   581   650 1
   544   581   660 1
   545   482   632 1
   546   423   427 1
   547   401   430 1
   548   423   430 1
   549   424   428 1
   550   420   458 1
   551   402   429 1
   552   420   424 1
   553   420   459 1
   554   424   429 1
   555  1190  1200 1
   556   404   431 1
   557   431  1194 1
   558  1173  1194 1
   559  1190  1194 1
   560   405   426 1
   561   406   428 1
   562   434   440 1
   563   411   452 1
   564   419   460 1
   565   419   423 1
   566   419   457 1
   567   412   452 1
   568   413   453 1
   569   417   421 1
   570   417   461 1
   571   417   455 1
   572   414   453 1
   573   421   425 1
   574   425  1200 1
   575   425   453 1
   576   421   431 1
   577   422   432 1
   578   422   426 1
   579   435   441 1
   580   447   452 1
   581   435   447 1
   582   435  1405 1
   583   447  1214 1
   584  1405  1408 1
   585   436   442 1
   586   436   446 1
   587   436   640 1
   588   442   480 1
   589   442   668 1
   590   437   478 1
   591   497   501 1
   592   497   507 1
   593   437   471 1
   594   437   497 1
   595   438   500 1
   596   438   472 1
   597   438   477 1
   598   635   642 1
   599   439   473 1
   600   439   625 1
   601   439   673 1
   602   449   625 1
   603   625   635 1
   604   440   474 1
   605   632   666 1
   606   444   626 1
   607   626   632 1
   608   445   448 1
   609   509   511 1
   610   509   514 1
   611   509   515 1
   612   514   522 1
   613   514   525 1
   614   514   520 1
   615   515   526 1
   616   501   508 1
   617   494   501 1
   618   502   507 1
   619   487   502 1
   620   488   504 1
   621   489   503 1
   622   495   499 1
   623   499   503 1
   624   499   505 1
   625   547   549 1
   626   547   555 1
   627   490   507 1
   628   491   508 1
   629   493   498 1
   630   498   508 1
   631   498   502 1
   632   492   506 1
   633   496   505 1
   634   505  1272 1
   635  1256  1272 1
   636   512   518 1
   637   510   512 1
   638   510   707 1
   639   701   707 1
   640   707   718 1
   641   701   706 1
   642   512   703 1
   643   701   703 1
   644   510   516 1
   645   516   524 1
   646   513   519 1
   647   513   516 1
   648   513   521 1
   649   513   523 1
   650   516   527 1
   651   517   703 1
   652   720   733 1
   653   532   541 1
   654   532  1344 1
   655   528   541 1
   656   541   571 1
   657   541  1344 1
   658   529   535 1
   659   529   562 1
   660   546   553 1
   661   533   542 1
   662   542   720 1
   663   542   574 1
   664   534   542 1
   665   564   570 1
   666   543   546 1
   667   545   548 1
   668   543   545 1
   669   545   551 1
   670   545   552 1
   671   543   547 1
   672   544   546 1
   673   550   557 1
   674   544   549 1
   675   544   550 1
   676   549   559 1
   677   550   556 1
   678   550   561 1
   679   548   554 1
   680   548   558 1
   681   548   560 1
   682   566   576 1
   683   568   576 1
   684   575   754 1
   685   721   754 1
   686   567   575 1
   687   575   757 1
   688   721   727 1
   689   733   763 1
   690   724   733 1
   691   724  1536 1
   692   733  1536 1
   693  1528  1536 1
   694   577   654 1
   695   577   672 1
   696   577   583 1
   697   577   656 1
   698   577   658 1
   699   577   678 1
   700   591   678 1
   701   577   674 1
   702   579   676 1
   703   579   652 1
   704   579   669 1
   705   579   582 1
   706   579   659 1
   707   579   661 1
   708   593   622 1
   709   616   620 1
   710   580   662 1
   711   580   670 1
   712   580   581 1
   713   580   651 1
   714   580   660 1
   715   612   616 1
   716   612   650 1
   717   612   651 1
   718   616   621 1
   719   580   675 1
   720   582   659 1
   721   582   661 1
   722   582   649 1
   723   582   665 1
   724   582   667 1
   725   610   614 1
   726   610   654 1
   727   583   664 1
   728   583   676 1
   729   583   648 1
   730   610   648 1
   731   583   656 1
   732   583   658 1
   733   584   647 1
   734   584   655 1
   735   584   657 1
   736   584   663 1
   737   584   675 1
   738   601   675 1
   739   585   636 1
   740   586   635 1
   741   596   623 1
   742   623  1386 1
   743   587   638 1
   744   628   634 1
   745   628   638 1
   746   634   672 1
   747   588  1405 1
   748   607   646 1
   749   608   646 1
   750   589   641 1
   751   631   665 1
   752   590   640 1
   753   598   620 1
   754   592   677 1
   755   594   621 1
   756   595   624 1
   757   597   618 1
   758   742   748 1
   759   742   749 1
   760   742   753 1
   761   602   676 1
   762   702   704 1
   763   702   708 1
   764   708   716 1
   765   708   719 1
   766   704   710 1
   767   705   708 1
   768   627   633 1
   769   603   644 1
   770   627   639 1
   771   639   644 1
   772   705   711 1
   773   705   713 1
   774   705   715 1
   775   639  1406 1
   776   633   667 1
   777   604   644 1
   778   613   623 1
   779   617  1392 1
   780   605   645 1
   781   613   617 1
   782   617   645 1
   783   606   645 1
   784   609   647 1
   785   609   653 1
   786   609   613 1
   787   611   652 1
   788   615   619 1
   789   611   615 1
   790   615   622 1
   791   611   649 1
   792   614   618 1
   793   614   624 1
   794   629   670 1
   795   629   689 1
   796   629   663 1
   797   630   664 1
   798   630   692 1
   799   630   669 1
   800   637   640 1
   801   679   694 1
   802   682   699 1
   803   680   696 1
   804   687   691 1
   805   706   714 1
   806   706   717 1
   807   681   695 1
   808   691   695 1
   809   706   712 1
   810   691   697 1
   811   683   700 1
   812   693   700 1
   813   686   693 1
   814   689   693 1
   815   689   699 1
   816   684   698 1
   817   698  1460 1
   818  1351  1432 1
   819  1398  1432 1
   820  1398  1460 1
   821  1351  1426 1
   822  1351  1416 1
   823  1351  1424 1
   824  1398  1437 1
   825  1351  1444 1
   826   685   690 1
   827   690   694 1
   828   690   700 1
   829   694   699 1
   830   688   697 1
   831   697  1464 1
   832   725   734 1
   833   734   766 1
   834   722   731 1
   835   722   756 1
   836   722   765 1
   837   756   762 1
   838   726   734 1
   839   736   742 1
   840   735   738 1
   841   735   739 1
   842   736   738 1
   843   736   741 1
   844   738   745 1
   845   739   741 1
   846   741   751 1
   847   735   737 1
   848   739   747 1
   849   737   740 1
   850   737   744 1
   851   737   743 1
   852   740   752 1
   853   740   746 1
   854   740   750 1
   855   758   768 1
   856   759   767 1
   857   760   768 1
   858  1526  1536 1
   859   965  1052 1
   860   769   775 1
   861   769   850 1
   862   965  1046 1
   863   769   846 1
   864   769   848 1
   865   769   864 1
   866   769   866 1
   867   769   870 1
   868   769   965 1
   869   870   965 1
   870   965  1050 1
   871   965  1034 1
   872   965  1044 1
   873   866  1016 1
   874   770   847 1
   875   770   776 1
   876   770   865 1
   877   770   845 1
   878   770   849 1
   879   770   863 1
   880   770   869 1
   881   771   844 1
   882   771   851 1
   883   771   853 1
   884   771   861 1
   885   771   868 1
   886   794   868 1
   887   771   774 1
   888   772   854 1
   889   772   773 1
   890   772   843 1
   891   772   867 1
   892   793   867 1
   893   772   862 1
   894   772   852 1
   895   784   869 1
   896   773   854 1
   897   773   842 1
   898   773   858 1
   899   773   860 1
   900   824   858 1
   901   773   852 1
   902   774   851 1
   903   774   853 1
   904   774  1061 1
   905   774   857 1
   906   774   841 1
   907   774   859 1
   908   825   859 1
   909   825  1055 1
   910   774   962 1
   911   822   884 1
   912   775   850 1
   913   775   856 1
   914   822   856 1
   915   775   840 1
   916   775   848 1
   917   775   868 1
   918   822   861 1
   919   776   847 1
   920   821   881 1
   921   776   867 1
   922   776   855 1
   923   821   855 1
   924   821   862 1
   925   776   849 1
   926   776   839 1
   927   777   828 1
   928   827   834 1
   929   778   827 1
   930   817   827 1
   931   787   816 1
   932   779   830 1
   933   807   814 1
   934   800   838 1
   935   807   811 1
   936   811   838 1
   937   781   833 1
   938   782   832 1
   939   783   870 1
   940   785   814 1
   941   808   812 1
   942   804   842 1
   943   786   813 1
   944   804   808 1
   945   804   843 1
   946   808   813 1
   947   813  1195 1
   948   788   815 1
   949   789   810 1
   950   790   812 1
   951   812  1198 1
   952   818   824 1
   953   791  1219 1
   954   818  1218 1
   955  1176  1219 1
   956  1211  1218 1
   957  1218  1219 1
   958   792   835 1
   959   834   835 1
   960   795   836 1
   961   803   844 1
   962   803   807 1
   963   803   841 1
   964   796   836 1
   965   797   837 1
   966   801   805 1
   967   801   845 1
   968   801   839 1
   969   798   837 1
   970   799   838 1
   971   914   923 1
   972   914   948 1
   973   914   957 1
   974   806   816 1
   975   806   810 1
   976   802   806 1
   977   802   840 1
   978   802   846 1
   979   805   809 1
   980   809   837 1
   981   805   815 1
   982   819   825 1
   983   831   836 1
   984   819   831 1
   985   820   826 1
   986   820   830 1
   987   820  1024 1
   988   826  1052 1
   989   826   864 1
   990  1019  1026 1
   991   823   857 1
   992   823  1009 1
   993   823  1057 1
   994   833  1009 1
   995  1009  1019 1
   996  1016  1050 1
   997   828  1010 1
   998  1010  1016 1
   999  1010  1410 1
  1000  1410  1411 1
  1001   828  1217 1
  1002   927   930 1
  1003   929   932 1
  1004   927   929 1
  1005   929   935 1
  1006   929   936 1
  1007   927   931 1
  1008   893   895 1
  1009   893   898 1
  1010   893   899 1
  1011   898   906 1
  1012   898   909 1
  1013   898   904 1
  1014   899   910 1
  1015   886   891 1
  1016   871   886 1
  1017   873   887 1
  1018   879   883 1
  1019   883   887 1
  1020   887  1274 1
  1021   883   889 1
  1022   931   933 1
  1023   881   885 1
  1024   931   939 1
  1025   874   891 1
  1026   881   891 1
  1027   875   892 1
  1028   877   882 1
  1029   882   892 1
  1030   882   886 1
  1031   876   890 1
  1032   885   892 1
  1033   878   885 1
  1034   880   889 1
  1035   956  1331 1
  1036   894   896 1
  1037   894  1091 1
  1038   896   902 1
  1039   896  1087 1
  1040  1085  1087 1
  1041  1085  1091 1
  1042  1085  1090 1
  1043  1091  1102 1
  1044   894   900 1
  1045   900   908 1
  1046   897   903 1
  1047   897   900 1
  1048   897   905 1
  1049   897   907 1
  1050   900   911 1
  1051   901  1087 1
  1052   926  1104 1
  1053   926   958 1
  1054  1104  1117 1
  1055   926  1298 1
  1056   926  1332 1
  1057  1104  1332 1
  1058   916   925 1
  1059   912   925 1
  1060   925   955 1
  1061   925  1299 1
  1062   925  1331 1
  1063  1299  1331 1
  1064   913   946 1
  1065   913   919 1
  1066   915   947 1
  1067   917   926 1
  1068   918   926 1
  1069   930   937 1
  1070   948   954 1
  1071  1183  1222 1
  1072  1184  1222 1
  1073  1195  1222 1
  1074   928   930 1
  1075   934   941 1
  1076   928   933 1
  1077   928   934 1
  1078   933   943 1
  1079   934   940 1
  1080   934   945 1
  1081   932   938 1
  1082   932   942 1
  1083   932   944 1
  1084   959  1138 1
  1085  1105  1138 1
  1086   951   959 1
  1087   959  1141 1
  1088  1105  1111 1
  1089  1117  1147 1
  1090  1117  1491 1
  1091  1108  1117 1
  1092  1117  1523 1
  1093   961  1056 1
  1094   967  1048 1
  1095   967  1060 1
  1096   967  1032 1
  1097   961   967 1
  1098   961  1038 1
  1099   961  1040 1
  1100   961  1042 1
  1101   961  1062 1
  1102   967  1040 1
  1103   967  1042 1
  1104   975  1062 1
  1105   961  1058 1
  1106   962  1061 1
  1107   962   968 1
  1108   962  1039 1
  1109   962  1041 1
  1110   993  1031 1
  1111   962  1057 1
  1112   993   997 1
  1113   962  1055 1
  1114   962  1037 1
  1115   993  1037 1
  1116   963  1060 1
  1117   963  1036 1
  1118   963  1053 1
  1119   963   966 1
  1120   963  1043 1
  1121   963  1045 1
  1122   966  1043 1
  1123   966  1045 1
  1124   966  1049 1
  1125   966  1033 1
  1126   966  1051 1
  1127   964  1046 1
  1128   964  1054 1
  1129   964   965 1
  1130   964  1035 1
  1131   964  1044 1
  1132   964  1059 1
  1133   968  1031 1
  1134   968  1039 1
  1135   968  1041 1
  1136   968  1047 1
  1137   968  1059 1
  1138   985  1059 1
  1139   969  1020 1
  1140  1020  1409 1
  1141   970  1019 1
  1142   980  1007 1
  1143   971  1022 1
  1144  1012  1018 1
  1145  1012  1022 1
  1146  1018  1056 1
  1147   973  1025 1
  1148   991  1030 1
  1149   992  1030 1
  1150   974  1024 1
  1151   982  1004 1
  1152  1004  1390 1
  1153   976  1061 1
  1154   995  1036 1
  1155   999  1003 1
  1156   977  1006 1
  1157   995   999 1
  1158   999  1006 1
  1159   995  1033 1
  1160  1000  1004 1
  1161  1005  1387 1
  1162   978  1005 1
  1163  1000  1005 1
  1164   981  1002 1
  1165   994   998 1
  1166   994  1032 1
  1167   994  1038 1
  1168   983  1411 1
  1169  1368  1411 1
  1170   984  1027 1
  1171   986  1060 1
  1172  1086  1088 1
  1173  1086  1092 1
  1174  1092  1100 1
  1175  1092  1103 1
  1176  1088  1094 1
  1177   987  1028 1
  1178   988  1028 1
  1179  1011  1017 1
  1180  1011  1023 1
  1181   989  1029 1
  1182   990  1029 1
  1183   996  1034 1
  1184   996  1035 1
  1185   996  1000 1
  1186   997  1007 1
  1187   997  1001 1
  1188  1001  1029 1
  1189   998  1002 1
  1190   998  1008 1
  1191  1003  1030 1
  1192  1077  1084 1
  1193  1013  1054 1
  1194  1013  1073 1
  1195  1070  1077 1
  1196  1073  1077 1
  1197  1073  1083 1
  1198  1013  1047 1
  1199  1015  1049 1
  1200  1017  1051 1
  1201  1089  1092 1
  1202  1023  1028 1
  1203  1089  1095 1
  1204  1089  1097 1
  1205  1089  1099 1
  1206  1026  1027 1
  1207  1063  1078 1
  1208  1066  1083 1
  1209  1064  1080 1
  1210  1065  1079 1
  1211  1079  1466 1
  1212  1067  1084 1
  1213  1069  1074 1
  1214  1074  1078 1
  1215  1074  1084 1
  1216  1078  1083 1
  1217  1068  1082 1
  1218  1071  1075 1
  1219  1090  1098 1
  1220  1090  1101 1
  1221  1075  1079 1
  1222  1090  1096 1
  1223  1075  1081 1
  1224  1072  1081 1
  1225  1109  1118 1
  1226  1118  1150 1
  1227  1118  1490 1
  1228  1118  1524 1
  1229  1491  1523 1
  1230  1106  1115 1
  1231  1106  1140 1
  1232  1106  1149 1
  1233  1140  1146 1
  1234  1107  1139 1
  1235  1110  1118 1
  1236  1120  1126 1
  1237  1119  1122 1
  1238  1119  1123 1
  1239  1120  1122 1
  1240  1120  1125 1
  1241  1122  1129 1
  1242  1123  1125 1
  1243  1125  1135 1
  1244  1119  1121 1
  1245  1123  1131 1
  1246  1121  1124 1
  1247  1121  1128 1
  1248  1121  1127 1
  1249  1124  1136 1
  1250  1124  1130 1
  1251  1124  1134 1
  1252  1142  1152 1
  1253  1143  1151 1
  1254  1148  1523 1
  1255  1153  1234 1
  1256  1349  1430 1
  1257  1153  1230 1
  1258  1153  1248 1
  1259  1153  1250 1
  1260  1153  1254 1
  1261  1153  1349 1
  1262  1210  1248 1
  1263  1210  1436 1
  1264  1250  1400 1
  1265  1254  1349 1
  1266  1349  1434 1
  1267  1349  1436 1
  1268  1400  1434 1
  1269  1349  1418 1
  1270  1153  1159 1
  1271  1153  1232 1
  1272  1349  1428 1
  1273  1154  1229 1
  1274  1154  1231 1
  1275  1154  1249 1
  1276  1154  1233 1
  1277  1154  1253 1
  1278  1168  1253 1
  1279  1154  1160 1
  1280  1154  1247 1
  1281  1159  1234 1
  1282  1159  1224 1
  1283  1206  1268 1
  1284  1155  1235 1
  1285  1155  1245 1
  1286  1155  1252 1
  1287  1159  1240 1
  1288  1159  1252 1
  1289  1178  1252 1
  1290  1206  1240 1
  1291  1206  1245 1
  1292  1159  1232 1
  1293  1155  1228 1
  1294  1155  1237 1
  1295  1155  1158 1
  1296  1156  1238 1
  1297  1156  1157 1
  1298  1156  1227 1
  1299  1156  1251 1
  1300  1177  1251 1
  1301  1156  1246 1
  1302  1156  1236 1
  1303  1157  1238 1
  1304  1157  1226 1
  1305  1157  1244 1
  1306  1157  1236 1
  1307  1157  1242 1
  1308  1158  1235 1
  1309  1158  1241 1
  1310  1158  1225 1
  1311  1158  1237 1
  1312  1158  1243 1
  1313  1158  1445 1
  1314  1209  1243 1
  1315  1209  1439 1
  1316  1158  1346 1
  1317  1160  1251 1
  1318  1160  1239 1
  1319  1160  1231 1
  1320  1182  1221 1
  1321  1160  1233 1
  1322  1160  1223 1
  1323  1263  1267 1
  1324  1264  1273 1
  1325  1161  1212 1
  1326  1162  1211 1
  1327  1201  1211 1
  1328  1171  1200 1
  1329  1163  1214 1
  1330  1191  1198 1
  1331  1165  1217 1
  1332  1191  1195 1
  1333  1166  1216 1
  1334  1167  1254 1
  1335  1169  1198 1
  1336  1315  1323 1
  1337  1315  1317 1
  1338  1188  1226 1
  1339  1170  1197 1
  1340  1174  1196 1
  1341  1188  1192 1
  1342  1188  1227 1
  1343  1192  1196 1
  1344  1192  1197 1
  1345  1189  1193 1
  1346  1172  1199 1
  1347  1189  1199 1
  1348  1202  1208 1
  1349  1179  1220 1
  1350  1180  1220 1
  1351  1181  1221 1
  1352  1185  1229 1
  1353  1193  1221 1
  1354  1185  1223 1
  1355  1185  1189 1
  1356  1186  1190 1
  1357  1186  1224 1
  1358  1186  1230 1
  1359  1187  1191 1
  1360  1187  1225 1
  1361  1187  1228 1
  1362  1203  1209 1
  1363  1215  1220 1
  1364  1203  1215 1
  1365  1204  1214 1
  1366  1204  1408 1
  1367  1204  1210 1
  1368  1205  1265 1
  1369  1205  1239 1
  1370  1205  1246 1
  1371  1403  1410 1
  1372  1207  1241 1
  1373  1207  1393 1
  1374  1207  1441 1
  1375  1217  1393 1
  1376  1393  1403 1
  1377  1208  1242 1
  1378  1277  1279 1
  1379  1277  1282 1
  1380  1282  1288 1
  1381  1282  1290 1
  1382  1277  1283 1
  1383  1282  1293 1
  1384  1394  1400 1
  1385  1212  1394 1
  1386  1259  1276 1
  1387  1261  1266 1
  1388  1266  1276 1
  1389  1270  1275 1
  1390  1255  1270 1
  1391  1266  1270 1
  1392  1257  1271 1
  1393  1265  1269 1
  1394  1317  1327 1
  1395  1258  1275 1
  1396  1265  1275 1
  1397  1260  1274 1
  1398  1262  1269 1
  1399  1267  1271 1
  1400  1267  1273 1
  1401  1318  1325 1
  1402  1312  1318 1
  1403  1318  1324 1
  1404  1318  1329 1
  1405  1269  1276 1
  1406  1312  1314 1
  1407  1312  1317 1
  1408  1278  1280 1
  1409  1278  1475 1
  1410  1281  1287 1
  1411  1278  1284 1
  1412  1281  1284 1
  1413  1281  1289 1
  1414  1281  1291 1
  1415  1284  1292 1
  1416  1284  1295 1
  1417  1492  1501 1
  1418  1280  1286 1
  1419  1280  1471 1
  1420  1469  1471 1
  1421  1469  1475 1
  1422  1469  1474 1
  1423  1475  1486 1
  1424  1283  1294 1
  1425  1300  1309 1
  1426  1285  1471 1
  1427  1296  1309 1
  1428  1309  1339 1
  1429  1298  1307 1
  1430  1298  1341 1
  1431  1298  1332 1
  1432  1301  1310 1
  1433  1302  1310 1
  1434  1332  1338 1
  1435  1313  1316 1
  1436  1311  1315 1
  1437  1311  1313 1
  1438  1311  1314 1
  1439  1313  1319 1
  1440  1313  1320 1
  1441  1314  1321 1
  1442  1310  1342 1
  1443  1310  1488 1
  1444  1488  1501 1
  1445  1501  1531 1
  1446  1316  1322 1
  1447  1316  1326 1
  1448  1316  1328 1
  1449  1334  1344 1
  1450  1336  1344 1
  1451  1335  1343 1
  1452  1343  1522 1
  1453  1343  1525 1
  1454  1489  1522 1
  1455  1489  1495 1
  1456  1345  1351 1
  1457  1345  1426 1
  1458  1345  1422 1
  1459  1345  1424 1
  1460  1345  1440 1
  1461  1345  1442 1
  1462  1345  1446 1
  1463  1346  1423 1
  1464  1346  1352 1
  1465  1346  1441 1
  1466  1377  1381 1
  1467  1346  1439 1
  1468  1346  1445 1
  1469  1346  1421 1
  1470  1346  1425 1
  1471  1377  1415 1
  1472  1377  1421 1
  1473  1347  1420 1
  1474  1347  1437 1
  1475  1347  1427 1
  1476  1347  1429 1
  1477  1347  1444 1
  1478  1370  1444 1
  1479  1347  1350 1
  1480  1348  1430 1
  1481  1348  1349 1
  1482  1348  1419 1
  1483  1352  1423 1
  1484  1397  1457 1
  1485  1348  1438 1
  1486  1348  1443 1
  1487  1352  1431 1
  1488  1352  1443 1
  1489  1369  1443 1
  1490  1397  1431 1
  1491  1397  1438 1
  1492  1348  1428 1
  1493  1352  1415 1
  1494  1352  1425 1
  1495  1350  1427 1
  1496  1350  1429 1
  1497  1350  1433 1
  1498  1350  1417 1
  1499  1350  1435 1
  1500  1401  1435 1
  1501  1372  1412 1
  1502  1353  1404 1
  1503  1354  1403 1
  1504  1355  1406 1
  1505  1396  1402 1
  1506  1396  1406 1
  1507  1402  1440 1
  1508  1376  1414 1
  1509  1357  1409 1
  1510  1358  1408 1
  1511  1366  1388 1
  1512  1359  1446 1
  1513  1360  1445 1
  1514  1379  1420 1
  1515  1379  1383 1
  1516  1361  1390 1
  1517  1379  1417 1
  1518  1362  1389 1
  1519  1363  1392 1
  1520  1364  1391 1
  1521  1382  1392 1
  1522  1365  1386 1
  1523  1378  1382 1
  1524  1378  1416 1
  1525  1382  1386 1
  1526  1378  1422 1
  1527  1395  1401 1
  1528  1371  1412 1
  1529  1395  1407 1
  1530  1407  1412 1
  1531  1373  1413 1
  1532  1374  1413 1
  1533  1375  1414 1
  1534  1490  1499 1
  1535  1490  1524 1
  1536  1524  1530 1
  1537  1490  1533 1
  1538  1384  1388 1
  1539  1380  1384 1
  1540  1380  1418 1
  1541  1380  1419 1
  1542  1384  1389 1
  1543  1381  1385 1
  1544  1385  1413 1
  1545  1381  1391 1
  1546  1383  1387 1
  1547  1387  1414 1
  1548  1383  1390 1
  1549  1399  1433 1
  1550  1503  1506 1
  1551  1507  1509 1
  1552  1505  1508 1
  1553  1507  1515 1
  1554  1505  1512 1
  1555  1503  1505 1
  1556  1503  1507 1
  1557  1505  1511 1
  1558  1455  1459 1
  1559  1474  1482 1
  1560  1474  1485 1
  1561  1449  1463 1
  1562  1459  1463 1
  1563  1474  1480 1
  1564  1459  1465 1
  1565  1457  1461 1
  1566  1447  1462 1
  1567  1450  1467 1
  1568  1457  1467 1
  1569  1462  1467 1
  1570  1448  1464 1
  1571  1451  1468 1
  1572  1453  1458 1
  1573  1458  1468 1
  1574  1458  1462 1
  1575  1452  1466 1
  1576  1461  1468 1
  1577  1454  1461 1
  1578  1456  1465 1
  1579  1470  1472 1
  1580  1472  1478 1
  1581  1470  1476 1
  1582  1473  1476 1
  1583  1473  1479 1
  1584  1473  1481 1
  1585  1473  1483 1
  1586  1476  1484 1
  1587  1476  1487 1
  1588  1493  1502 1
  1589  1502  1534 1
  1590  1494  1502 1
  1591  1504  1506 1
  1592  1504  1509 1
  1593  1504  1510 1
  1594  1506  1513 1
  1595  1510  1516 1
  1596  1510  1517 1
  1597  1510  1521 1
  1598  1509  1519 1
  1599  1508  1514 1
  1600  1508  1520 1
  1601  1508  1518 1
  1602  1527  1535 1
