@<TRIPOS>MOLECULE
frame0029
 1536 1590 0 0 0
SMALL
NO_CHARGES

@<TRIPOS>ATOM
      1 Ti1         -2.8554     2.2298    11.2464 Ti        1 MOL       0.0000
      2 Ti2          7.9750     5.1110     1.8816 Ti        1 MOL       0.0000
      3 Ti3          1.2412    -1.7064     9.4264 Ti        1 MOL       0.0000
      4 Ti4          2.7524     7.4557     3.6534 Ti        1 MOL       0.0000
      5 Ti5          1.7539     9.1340     1.7490 Ti        1 MOL       0.0000
      6 Ti6          3.1294    -1.9608    11.3798 Ti        1 MOL       0.0000
      7 Ti7         -1.9062     0.4939     9.3549 Ti        1 MOL       0.0000
      8 Ti8          5.9872     5.4135     3.7290 Ti        1 MOL       0.0000
      9 H1          -2.3536     6.1269    11.0269 H         1 MOL       0.0000
     10 H2           8.7838     1.2049     2.2023 H         1 MOL       0.0000
     11 H3          -6.8153     1.4731    10.8640 H         1 MOL       0.0000
     12 H4          11.3572     7.1153     2.0822 H         1 MOL       0.0000
     13 H5           4.1051    -5.9953    10.9939 H         1 MOL       0.0000
     14 H6          -2.3047     8.5441     2.0711 H         1 MOL       0.0000
     15 H7          -2.3867     0.4312    12.9709 H         1 MOL       0.0000
     16 H8           6.0995     4.8683     0.1817 H         1 MOL       0.0000
     17 H9           3.6394    -2.6279     5.8687 H         1 MOL       0.0000
     18 H10          1.0290     9.2927     7.2723 H         1 MOL       0.0000
     19 H11         -5.9789     3.8825     8.9990 H         1 MOL       0.0000
     20 H12         10.7298     3.0266     4.1876 H         1 MOL       0.0000
     21 H13         -3.6778     2.4351     5.6652 H         1 MOL       0.0000
     22 H14         -1.3462    10.9619     4.1022 H         1 MOL       0.0000
     23 H15          2.1461    12.2368     2.6045 H         1 MOL       0.0000
     24 H16          8.6260    -0.8139     3.4048 H         1 MOL       0.0000
     25 H17          4.8451     7.1358     2.3148 H         1 MOL       0.0000
     26 H18          0.1606     0.1420    10.7200 H         1 MOL       0.0000
     27 H19          7.3642    -0.0259     9.7695 H         1 MOL       0.0000
     28 H20          5.8831    -0.4950    10.5168 H         1 MOL       0.0000
     29 H21          7.9383     4.4077     8.6706 H         1 MOL       0.0000
     30 H22          7.3686     4.7663     7.0520 H         1 MOL       0.0000
     31 H23          6.8754    -4.9808     9.5794 H         1 MOL       0.0000
     32 H24          5.5962    -3.8802    10.0368 H         1 MOL       0.0000
     33 C1           8.5531     4.3697     4.7451 C         1 MOL       0.0000
     34 C2          -3.8160     2.4911     8.3994 C         1 MOL       0.0000
     35 C3           3.8218    -2.7171     8.5017 C         1 MOL       0.0000
     36 C4           0.8163     9.4262     4.6128 C         1 MOL       0.0000
     37 C5           9.4491     3.7654     5.7403 C         1 MOL       0.0000
     38 C6          -4.7479     3.1162     7.4223 C         1 MOL       0.0000
     39 C7           4.7619    -3.3315     7.5545 C         1 MOL       0.0000
     40 C8          -0.0735    10.0730     5.6125 C         1 MOL       0.0000
     41 C9           9.2003     3.8403     7.1467 C         1 MOL       0.0000
     42 C10         -4.5315     2.9962     6.0343 C         1 MOL       0.0000
     43 C11          5.8914    -4.0918     8.0076 C         1 MOL       0.0000
     44 C12         -1.1682    10.8460     5.1676 C         1 MOL       0.0000
     45 C13          0.1810     9.9023     6.9674 C         1 MOL       0.0000
     46 C14          4.5142    -3.1993     6.1706 C         1 MOL       0.0000
     47 C15         10.5828     3.0664     5.2646 C         1 MOL       0.0000
     48 C16         -5.8480     3.8086     7.9210 C         1 MOL       0.0000
     49 C17          8.7648     1.2840     0.0582 C         1 MOL       0.0000
     50 C18          2.2951    13.0756     0.0832 C         1 MOL       0.0000
     51 C19          6.6143    -0.0189    13.0272 C         1 MOL       0.0000
     52 C20         -6.7440     1.5235    13.0078 C         1 MOL       0.0000
     53 C21          3.4992     5.1125     5.6180 C         1 MOL       0.0000
     54 C22         -1.2569    -1.9819     7.5361 C         1 MOL       0.0000
     55 C23          3.9940    -4.3272    13.1300 C         1 MOL       0.0000
     56 C24          2.2024    11.6421     0.0457 C         1 MOL       0.0000
     57 C25          5.3165    -0.6357    13.0740 C         1 MOL       0.0000
     58 C26         -5.3417     1.9379    13.0323 C         1 MOL       0.0000
     59 C27          8.8042     0.6149     1.2879 C         1 MOL       0.0000
     60 C28         -2.3426     6.7153    11.9408 C         1 MOL       0.0000
     61 C29         -4.0954     7.8789     1.0761 C         1 MOL       0.0000
     62 C30         -7.3768     1.2938    11.7793 C         1 MOL       0.0000
     63 C31          7.3089     0.2494    11.7938 C         1 MOL       0.0000
     64 C32         -2.8062     8.3591     1.1253 C         1 MOL       0.0000
     65 C33          4.1467    -6.5225    11.9429 C         1 MOL       0.0000
     66 C34          8.8259    -0.7862     1.3695 C         1 MOL       0.0000
     67 N1           8.8810    -1.3851     2.6076 N         1 MOL       0.0000
     68 N2           6.7299     0.0665    10.5548 N         1 MOL       0.0000
     69 N3           8.1195     4.4866     7.6780 N         1 MOL       0.0000
     70 N4           6.2224    -4.2500     9.3250 N         1 MOL       0.0000
     71 O1           7.3768     4.7748     5.1109 O         1 MOL       0.0000
     72 O2          -3.0470     1.5403     8.0011 O         1 MOL       0.0000
     73 O3           4.2032    -2.5927     9.7228 O         1 MOL       0.0000
     74 O4           0.7505     9.8559     3.4131 O         1 MOL       0.0000
     75 O5           1.5868     8.4690     4.9992 O         1 MOL       0.0000
     76 O6           2.6513    -2.3487     8.0962 O         1 MOL       0.0000
     77 O7           8.9650     4.4505     3.5334 O         1 MOL       0.0000
     78 O8          -3.8580     2.9274     9.5991 O         1 MOL       0.0000
     79 O9           6.2924     4.1956     2.5344 O         1 MOL       0.0000
     80 O10         -1.3538     2.0542    10.0994 O         1 MOL       0.0000
     81 O11          7.2312     6.4829     2.9843 O         1 MOL       0.0000
     82 O12         -3.1060     0.3295    10.5921 O         1 MOL       0.0000
     83 O13          1.5006    -2.8784    10.6868 O         1 MOL       0.0000
     84 O14          3.2690     9.0170     2.9149 O         1 MOL       0.0000
     85 O15          2.4545    -0.6169    10.2227 O         1 MOL       0.0000
     86 O16          1.5628     7.2599     2.3975 O         1 MOL       0.0000
     87 O17          4.7203     4.9326     5.2637 O         1 MOL       0.0000
     88 O18         -1.9146    -0.9469     7.9143 O         1 MOL       0.0000
     89 O19          3.8718    -3.7326    11.9889 O         1 MOL       0.0000
     90 O20          2.1193    10.9406     1.1409 O         1 MOL       0.0000
     91 O21          4.6739    -0.9445    11.9838 O         1 MOL       0.0000
     92 O22         -0.1167     9.1049     1.0808 O         1 MOL       0.0000
     93 O23         -0.0951    -2.2764     7.9939 O         1 MOL       0.0000
     94 O24          2.7573     6.0334     5.1246 O         1 MOL       0.0000
     95 O25          9.4121     6.1301     1.1270 O         1 MOL       0.0000
     96 O26         -4.7422     2.1697    11.9148 O         1 MOL       0.0000
     97 O27          8.6166     3.3758     1.1564 O         1 MOL       0.0000
     98 O28         -2.4740     3.9521    11.9961 O         1 MOL       0.0000
     99 O29          4.4842     6.5871     3.0354 O         1 MOL       0.0000
    100 O30         -0.2177    -0.4167    10.0165 O         1 MOL       0.0000
    101 O31          6.9383     5.3620     0.1026 O         1 MOL       0.0000
    102 O32         -2.2643     1.3980    13.0309 O         1 MOL       0.0000
    103 H25          3.7921     1.5186     8.5725 H         1 MOL       0.0000
    104 H26         -6.6017    10.6520     6.0590 H         1 MOL       0.0000
    105 H27          4.4265    10.0845     5.7992 H         1 MOL       0.0000
    106 H28          4.7209     3.0092     6.7769 H         1 MOL       0.0000
    107 H29          0.2393     3.9436     8.7364 H         1 MOL       0.0000
    108 H30         12.1177    -2.7074     7.1120 H         1 MOL       0.0000
    109 H31          1.5250     1.9432     9.4637 H         1 MOL       0.0000
    110 H32          1.1732     5.4255     6.9392 H         1 MOL       0.0000
    111 H33          5.7576     8.3110     4.6829 H         1 MOL       0.0000
    112 H34          8.2343     8.3171     4.8134 H         1 MOL       0.0000
    113 C35          2.9694     4.2640     6.7111 C         1 MOL       0.0000
    114 C36          1.9403     2.6145     8.7124 C         1 MOL       0.0000
    115 C37          6.2669     9.0916     5.2472 C         1 MOL       0.0000
    116 C38         -1.9206    -2.9631     6.6510 C         1 MOL       0.0000
    117 C39          1.7173     4.5505     7.2827 C         1 MOL       0.0000
    118 C40          3.2182     2.3646     8.1980 C         1 MOL       0.0000
    119 C41          5.5133    10.0963     5.8662 C         1 MOL       0.0000
    120 C42         -7.6859    10.6393     5.9695 C         1 MOL       0.0000
    121 C43          7.6644     9.0933     5.3217 C         1 MOL       0.0000
    122 C44         12.6779    -3.5021     6.6259 C         1 MOL       0.0000
    123 C45          3.7339     3.1883     7.1982 C         1 MOL       0.0000
    124 C46          1.2020     3.7242     8.2816 C         1 MOL       0.0000
    125 N5           5.3388    10.6045     1.3007 N         1 MOL       0.0000
    126 N6           1.9436     2.3995    13.0102 N         1 MOL       0.0000
    127 C47          5.1023    11.1065     0.0360 C         1 MOL       0.0000
    128 C48          1.2091     3.3027    12.2594 C         1 MOL       0.0000
    129 C49          4.1878     2.5109    12.0008 C         1 MOL       0.0000
    130 C50          4.9717    11.2732     2.5612 C         1 MOL       0.0000
    131 C51          6.2591     9.6311     1.1951 C         1 MOL       0.0000
    132 C52          3.0751     1.5994    12.5179 C         1 MOL       0.0000
    133 H35         -0.1069     4.9375    12.9460 H         1 MOL       0.0000
    134 H36          1.3304     3.3905    11.1951 H         1 MOL       0.0000
    135 H37          3.8246     3.1281    11.1704 H         1 MOL       0.0000
    136 H38          4.9191    12.3460     2.3770 H         1 MOL       0.0000
    137 H39          4.5642     3.1691    12.7954 H         1 MOL       0.0000
    138 H40          4.0209    10.8814     2.9063 H         1 MOL       0.0000
    139 H41          5.0050     1.8949    11.6115 H         1 MOL       0.0000
    140 H42          2.7023     0.9409    11.7314 H         1 MOL       0.0000
    141 H43          5.7395    11.0802     3.3118 H         1 MOL       0.0000
    142 H44          6.7043     9.1018     2.0361 H         1 MOL       0.0000
    143 H45          8.0182     8.0478     0.2716 H         1 MOL       0.0000
    144 N7           8.8244    -7.3226    12.8207 N         1 MOL       0.0000
    145 C53          1.0614     0.5577     1.1531 C         1 MOL       0.0000
    146 C54          9.7467    -5.0435     9.5180 C         1 MOL       0.0000
    147 O33         -1.7798     0.5087     2.8171 O         1 MOL       0.0000
    148 O34         -6.2469    12.5138     1.3322 O         1 MOL       0.0000
    149 O35          1.2660     6.4694    10.3977 O         1 MOL       0.0000
    150 O36          3.2243     6.6014     8.7749 O         1 MOL       0.0000
    151 F1           0.7282     1.3316     2.2624 F         1 MOL       0.0000
    152 F2           9.5554    -2.9440    11.6490 F         1 MOL       0.0000
    153 F3           2.1896     1.2278     0.6844 F         1 MOL       0.0000
    154 F4          -0.3422     0.2457     4.4957 F         1 MOL       0.0000
    155 F5           9.2034    -3.8417     9.4399 F         1 MOL       0.0000
    156 F6           2.7308     8.9313     8.2979 F         1 MOL       0.0000
    157 S1          14.3165    -0.8288     0.8041 S         1 MOL       0.0000
    158 S2           2.6655     6.7222    10.1215 S         1 MOL       0.0000
    159 N8           3.5647     1.5827     3.6341 N         1 MOL       0.0000
    160 N9           1.7254     2.3563     4.5538 N         1 MOL       0.0000
    161 C55          4.7444     1.5008     2.7355 C         1 MOL       0.0000
    162 C56          2.6316     2.5521     3.5820 C         1 MOL       0.0000
    163 C57          3.2300     0.7249     4.6768 C         1 MOL       0.0000
    164 C58          4.9374     0.1255     2.1072 C         1 MOL       0.0000
    165 C59          2.0874     1.2040     5.2383 C         1 MOL       0.0000
    166 C60          0.4461     3.0626     4.6753 C         1 MOL       0.0000
    167 H46          5.6149     1.8065     3.3182 H         1 MOL       0.0000
    168 H47          4.5812     2.2549     1.9561 H         1 MOL       0.0000
    169 H48          2.5722     3.3343     2.8332 H         1 MOL       0.0000
    170 H49          5.9380     0.0934     1.6630 H         1 MOL       0.0000
    171 H50          3.8140    -0.1499     4.8976 H         1 MOL       0.0000
    172 H51          0.3342     3.3780     5.7179 H         1 MOL       0.0000
    173 H52          0.4751     3.9555     4.0172 H         1 MOL       0.0000
    174 H53          4.8695    -0.6983     2.8295 H         1 MOL       0.0000
    175 H54          1.4727     0.8008     6.0257 H         1 MOL       0.0000
    176 H55          4.2017    -0.0996     1.3165 H         1 MOL       0.0000
    177 H56         -0.3618     2.3814     4.4042 H         1 MOL       0.0000
    178 N10          0.0154     0.5256     0.1925 N         1 MOL       0.0000
    179 C61         -1.5328    -0.1534     3.8748 C         1 MOL       0.0000
    180 C62          9.4082    -5.9146    10.7348 C         1 MOL       0.0000
    181 O37         -4.7209    -4.0369    12.6936 O         1 MOL       0.0000
    182 O38          1.8353    -1.4155     3.1182 O         1 MOL       0.0000
    183 O39         -3.7672    -5.7458    11.0574 O         1 MOL       0.0000
    184 O40         -3.9177    13.0730     0.6975 O         1 MOL       0.0000
    185 F7          -2.5315     0.0932     4.8871 F         1 MOL       0.0000
    186 F8           8.2125    -5.5325    11.1686 F         1 MOL       0.0000
    187 F9           6.8823    12.4217     1.4424 F         1 MOL       0.0000
    188 F10         -1.4048    -1.5038     3.7825 F         1 MOL       0.0000
    189 F11         11.0966    -4.9979     9.3370 F         1 MOL       0.0000
    190 F12          3.6689     5.7451    11.0284 F         1 MOL       0.0000
    191 S3          -4.7218    -5.3374    12.0649 S         1 MOL       0.0000
    192 S4          -5.0335    13.2646     1.6292 S         1 MOL       0.0000
    193 Ti9         -7.4904    -4.8362    24.3414 Ti        1 MOL       0.0000
    194 Ti10         3.3400    -1.9550    14.9766 Ti        1 MOL       0.0000
    195 Ti11        -3.3938    -8.7724    22.5214 Ti        1 MOL       0.0000
    196 Ti12        -1.8826     0.3897    16.7484 Ti        1 MOL       0.0000
    197 Ti13        -2.8811     2.0680    14.8440 Ti        1 MOL       0.0000
    198 Ti14        -1.5056    -9.0268    24.4748 Ti        1 MOL       0.0000
    199 Ti15        -6.5412    -6.5721    22.4499 Ti        1 MOL       0.0000
    200 Ti16         1.3522    -1.6525    16.8240 Ti        1 MOL       0.0000
    201 H57         -6.9886    -0.9391    24.1219 H         1 MOL       0.0000
    202 H58          4.1488    -5.8611    15.2973 H         1 MOL       0.0000
    203 H59        -11.4503    -5.5929    23.9590 H         1 MOL       0.0000
    204 H60          6.7222     0.0493    15.1772 H         1 MOL       0.0000
    205 H61         -0.5299   -13.0613    24.0889 H         1 MOL       0.0000
    206 H62         -6.9397     1.4781    15.1661 H         1 MOL       0.0000
    207 H63         -7.0217    -6.6348    26.0659 H         1 MOL       0.0000
    208 H64          1.4645    -2.1977    13.2767 H         1 MOL       0.0000
    209 H65         -0.9956    -9.6939    18.9637 H         1 MOL       0.0000
    210 H66         -3.6060     2.2267    20.3673 H         1 MOL       0.0000
    211 H67        -10.6139    -3.1835    22.0940 H         1 MOL       0.0000
    212 H68          6.0948    -4.0393    17.2826 H         1 MOL       0.0000
    213 H69         -8.3127    -4.6309    18.7602 H         1 MOL       0.0000
    214 H70         -5.9812     3.8959    17.1972 H         1 MOL       0.0000
    215 H71         -2.4889     5.1708    15.6995 H         1 MOL       0.0000
    216 H72          3.9910    -7.8799    16.4998 H         1 MOL       0.0000
    217 H73          0.2101     0.0698    15.4098 H         1 MOL       0.0000
    218 H74         -4.4744    -6.9240    23.8150 H         1 MOL       0.0000
    219 H75          2.7292    -7.0919    22.8645 H         1 MOL       0.0000
    220 H76          1.2481    -7.5610    23.6118 H         1 MOL       0.0000
    221 H77          3.3033    -2.6583    21.7655 H         1 MOL       0.0000
    222 H78          2.7336    -2.2997    20.1470 H         1 MOL       0.0000
    223 H79          2.2404   -12.0468    22.6744 H         1 MOL       0.0000
    224 H80          0.9612   -10.9462    23.1318 H         1 MOL       0.0000
    225 C63          3.9181    -2.6963    17.8401 C         1 MOL       0.0000
    226 C64         -8.4510    -4.5749    21.4944 C         1 MOL       0.0000
    227 C65         -0.8132    -9.7831    21.5967 C         1 MOL       0.0000
    228 C66         -3.8187     2.3602    17.7078 C         1 MOL       0.0000
    229 C67          4.8141    -3.3006    18.8353 C         1 MOL       0.0000
    230 C68         -9.3829    -3.9498    20.5173 C         1 MOL       0.0000
    231 C69          0.1269   -10.3975    20.6495 C         1 MOL       0.0000
    232 C70         -4.7085     3.0070    18.7075 C         1 MOL       0.0000
    233 C71          4.5653    -3.2257    20.2417 C         1 MOL       0.0000
    234 C72         -9.1665    -4.0698    19.1293 C         1 MOL       0.0000
    235 C73          1.2564   -11.1578    21.1026 C         1 MOL       0.0000
    236 C74         -5.8032     3.7800    18.2626 C         1 MOL       0.0000
    237 C75         -4.4540     2.8362    20.0624 C         1 MOL       0.0000
    238 C76         -0.1208   -10.2653    19.2656 C         1 MOL       0.0000
    239 C77          5.9478    -3.9996    18.3596 C         1 MOL       0.0000
    240 C78        -10.4831    -3.2574    21.0160 C         1 MOL       0.0000
    241 C79          4.1298    -5.7820    13.1532 C         1 MOL       0.0000
    242 C80         -2.3399     6.0096    13.1782 C         1 MOL       0.0000
    243 C81          1.9793    -7.0849    26.1222 C         1 MOL       0.0000
    244 C82        -11.3790    -5.5425    26.1028 C         1 MOL       0.0000
    245 C83         -1.1358    -1.9535    18.7130 C         1 MOL       0.0000
    246 C84         -5.8919    -9.0479    20.6311 C         1 MOL       0.0000
    247 C85         -0.6410   -11.3932    26.2250 C         1 MOL       0.0000
    248 C86         -2.4326     4.5761    13.1407 C         1 MOL       0.0000
    249 C87          0.6815    -7.7017    26.1690 C         1 MOL       0.0000
    250 C88         -9.9767    -5.1281    26.1273 C         1 MOL       0.0000
    251 C89          4.1692    -6.4511    14.3829 C         1 MOL       0.0000
    252 C90         -6.9776    -0.3507    25.0358 C         1 MOL       0.0000
    253 C91         -8.7304     0.8129    14.1711 C         1 MOL       0.0000
    254 C92        -12.0118    -5.7722    24.8743 C         1 MOL       0.0000
    255 C93          2.6739    -6.8166    24.8888 C         1 MOL       0.0000
    256 C94         -7.4412     1.2931    14.2203 C         1 MOL       0.0000
    257 C95         -0.4883   -13.5885    25.0379 C         1 MOL       0.0000
    258 C96          4.1909    -7.8522    14.4645 C         1 MOL       0.0000
    259 N11          4.2460    -8.4511    15.7026 N         1 MOL       0.0000
    260 N12          2.0949    -6.9995    23.6498 N         1 MOL       0.0000
    261 N13          3.4845    -2.5794    20.7730 N         1 MOL       0.0000
    262 N14          1.5874   -11.3160    22.4200 N         1 MOL       0.0000
    263 O41          2.7418    -2.2912    18.2059 O         1 MOL       0.0000
    264 O42         -7.6820    -5.5257    21.0961 O         1 MOL       0.0000
    265 O43         -0.4318    -9.6587    22.8178 O         1 MOL       0.0000
    266 O44         -3.8845     2.7899    16.5082 O         1 MOL       0.0000
    267 O45         -3.0482     1.4030    18.0942 O         1 MOL       0.0000
    268 O46         -1.9837    -9.4147    21.1912 O         1 MOL       0.0000
    269 O47          4.3300    -2.6155    16.6284 O         1 MOL       0.0000
    270 O48         -8.4930    -4.1386    22.6941 O         1 MOL       0.0000
    271 O49          1.6574    -2.8704    15.6294 O         1 MOL       0.0000
    272 O50         -5.9888    -5.0118    23.1944 O         1 MOL       0.0000
    273 O51          2.5962    -0.5831    16.0793 O         1 MOL       0.0000
    274 O52         -7.7410    -6.7365    23.6871 O         1 MOL       0.0000
    275 O53         -3.1344    -9.9444    23.7818 O         1 MOL       0.0000
    276 O54         -1.3660     1.9510    16.0099 O         1 MOL       0.0000
    277 O55         -2.1805    -7.6829    23.3177 O         1 MOL       0.0000
    278 O56         -3.0722     0.1939    15.4925 O         1 MOL       0.0000
    279 O57          0.0853    -2.1334    18.3587 O         1 MOL       0.0000
    280 O58         -6.5496    -8.0129    21.0093 O         1 MOL       0.0000
    281 O59         -0.7632   -10.7986    25.0839 O         1 MOL       0.0000
    282 O60         -2.5157     3.8746    14.2359 O         1 MOL       0.0000
    283 O61          0.0389    -8.0105    25.0788 O         1 MOL       0.0000
    284 O62         -4.7517     2.0389    14.1758 O         1 MOL       0.0000
    285 O63         -4.7301    -9.3424    21.0889 O         1 MOL       0.0000
    286 O64         -1.8777    -1.0326    18.2196 O         1 MOL       0.0000
    287 O65          4.7771    -0.9359    14.2220 O         1 MOL       0.0000
    288 O66         -9.3772    -4.8963    25.0098 O         1 MOL       0.0000
    289 O67          3.9816    -3.6902    14.2514 O         1 MOL       0.0000
    290 O68         -7.1090    -3.1139    25.0911 O         1 MOL       0.0000
    291 O69         -0.1508    -0.4789    16.1304 O         1 MOL       0.0000
    292 O70         -4.8527    -7.4827    23.1115 O         1 MOL       0.0000
    293 O71          2.3033    -1.7041    13.1976 O         1 MOL       0.0000
    294 O72         -6.8993    -5.6680    26.1259 O         1 MOL       0.0000
    295 H81         -0.8429    -5.5474    21.6675 H         1 MOL       0.0000
    296 H82        -11.2367     3.5860    19.1540 H         1 MOL       0.0000
    297 H83         -0.2085     3.0185    18.8942 H         1 MOL       0.0000
    298 H84          0.0859    -4.0568    19.8719 H         1 MOL       0.0000
    299 H85         -4.3957    -3.1224    21.8314 H         1 MOL       0.0000
    300 H86          7.4827    -9.7734    20.2070 H         1 MOL       0.0000
    301 H87         -3.1100    -5.1228    22.5587 H         1 MOL       0.0000
    302 H88         -3.4618    -1.6405    20.0342 H         1 MOL       0.0000
    303 H89          1.1226     1.2450    17.7779 H         1 MOL       0.0000
    304 H90          3.5993     1.2511    17.9084 H         1 MOL       0.0000
    305 C97         -1.6656    -2.8020    19.8061 C         1 MOL       0.0000
    306 C98         -2.6947    -4.4515    21.8074 C         1 MOL       0.0000
    307 C99          1.6319     2.0256    18.3422 C         1 MOL       0.0000
    308 C100        -6.5556   -10.0291    19.7460 C         1 MOL       0.0000
    309 C101        -2.9177    -2.5155    20.3777 C         1 MOL       0.0000
    310 C102        -1.4168    -4.7014    21.2930 C         1 MOL       0.0000
    311 C103         0.8783     3.0303    18.9612 C         1 MOL       0.0000
    312 C104       -12.3209     3.5733    19.0645 C         1 MOL       0.0000
    313 C105         3.0294     2.0273    18.4167 C         1 MOL       0.0000
    314 C106         8.0429   -10.5681    19.7209 C         1 MOL       0.0000
    315 C107        -0.9011    -3.8777    20.2932 C         1 MOL       0.0000
    316 C108        -3.4330    -3.3418    21.3766 C         1 MOL       0.0000
    317 N15          0.7038     3.5385    14.3957 N         1 MOL       0.0000
    318 N16         -2.6914    -4.6665    26.1052 N         1 MOL       0.0000
    319 C109         0.4673     4.0405    13.1310 C         1 MOL       0.0000
    320 C110        -3.4259    -3.7633    25.3544 C         1 MOL       0.0000
    321 C111        -0.4472    -4.5551    25.0958 C         1 MOL       0.0000
    322 C112         0.3367     4.2072    15.6562 C         1 MOL       0.0000
    323 C113         1.6241     2.5651    14.2901 C         1 MOL       0.0000
    324 C114        -1.5599    -5.4666    25.6129 C         1 MOL       0.0000
    325 H91         -4.7419    -2.1285    26.0410 H         1 MOL       0.0000
    326 H92         -3.3046    -3.6755    24.2901 H         1 MOL       0.0000
    327 H93         -0.8104    -3.9379    24.2654 H         1 MOL       0.0000
    328 H94          0.2841     5.2800    15.4720 H         1 MOL       0.0000
    329 H95         -0.0708    -3.8969    25.8904 H         1 MOL       0.0000
    330 H96         -0.6141     3.8154    16.0013 H         1 MOL       0.0000
    331 H97          0.3700    -5.1711    24.7065 H         1 MOL       0.0000
    332 H98         -1.9327    -6.1251    24.8264 H         1 MOL       0.0000
    333 H99          1.1045     4.0142    16.4068 H         1 MOL       0.0000
    334 H100         2.0693     2.0358    15.1311 H         1 MOL       0.0000
    335 H101         3.3832     0.9818    13.3666 H         1 MOL       0.0000
    336 N17          4.1894   -14.3886    25.9157 N         1 MOL       0.0000
    337 C115        -3.5736    -6.5083    14.2481 C         1 MOL       0.0000
    338 C116         5.1117   -12.1095    22.6130 C         1 MOL       0.0000
    339 O73         -6.4148    -6.5573    15.9121 O         1 MOL       0.0000
    340 O74        -10.8819     5.4478    14.4272 O         1 MOL       0.0000
    341 O75         -3.3690    -0.5966    23.4927 O         1 MOL       0.0000
    342 O76         -1.4107    -0.4646    21.8699 O         1 MOL       0.0000
    343 F13         -3.9068    -5.7344    15.3574 F         1 MOL       0.0000
    344 F14          4.9204   -10.0100    24.7440 F         1 MOL       0.0000
    345 F15         -2.4454    -5.8382    13.7794 F         1 MOL       0.0000
    346 F16         -4.9772    -6.8203    17.5907 F         1 MOL       0.0000
    347 F17          4.5684   -10.9077    22.5349 F         1 MOL       0.0000
    348 F18         -1.9042     1.8653    21.3929 F         1 MOL       0.0000
    349 S5           9.6815    -7.8948    13.8991 S         1 MOL       0.0000
    350 S6          -1.9695    -0.3438    23.2165 S         1 MOL       0.0000
    351 N18         -1.0703    -5.4833    16.7291 N         1 MOL       0.0000
    352 N19         -2.9096    -4.7097    17.6488 N         1 MOL       0.0000
    353 C117         0.1094    -5.5652    15.8305 C         1 MOL       0.0000
    354 C118        -2.0034    -4.5139    16.6770 C         1 MOL       0.0000
    355 C119        -1.4050    -6.3411    17.7718 C         1 MOL       0.0000
    356 C120         0.3024    -6.9405    15.2022 C         1 MOL       0.0000
    357 C121        -2.5476    -5.8620    18.3333 C         1 MOL       0.0000
    358 C122        -4.1889    -4.0034    17.7703 C         1 MOL       0.0000
    359 H102         0.9799    -5.2595    16.4132 H         1 MOL       0.0000
    360 H103        -0.0538    -4.8111    15.0511 H         1 MOL       0.0000
    361 H104        -2.0628    -3.7317    15.9282 H         1 MOL       0.0000
    362 H105         1.3030    -6.9726    14.7580 H         1 MOL       0.0000
    363 H106        -0.8210    -7.2159    17.9926 H         1 MOL       0.0000
    364 H107        -4.3008    -3.6880    18.8129 H         1 MOL       0.0000
    365 H108        -4.1599    -3.1105    17.1122 H         1 MOL       0.0000
    366 H109         0.2345    -7.7643    15.9245 H         1 MOL       0.0000
    367 H110        -3.1623    -6.2652    19.1207 H         1 MOL       0.0000
    368 H111        -0.4333    -7.1656    14.4115 H         1 MOL       0.0000
    369 H112        -4.9968    -4.6846    17.4992 H         1 MOL       0.0000
    370 N20         -4.6196    -6.5404    13.2875 N         1 MOL       0.0000
    371 C123        -6.1678    -7.2194    16.9698 C         1 MOL       0.0000
    372 C124         4.7732   -12.9806    23.8298 C         1 MOL       0.0000
    373 O77         -9.3559   -11.1029    25.7886 O         1 MOL       0.0000
    374 O78         -2.7997    -8.4815    16.2132 O         1 MOL       0.0000
    375 O79         -8.4022   -12.8118    24.1524 O         1 MOL       0.0000
    376 O80         -8.5527     6.0070    13.7925 O         1 MOL       0.0000
    377 F19         -7.1665    -6.9728    17.9821 F         1 MOL       0.0000
    378 F20          3.5775   -12.5985    24.2636 F         1 MOL       0.0000
    379 F21          2.2473     5.3557    14.5374 F         1 MOL       0.0000
    380 F22         -6.0398    -8.5698    16.8775 F         1 MOL       0.0000
    381 F23          6.4616   -12.0639    22.4320 F         1 MOL       0.0000
    382 F24         -0.9661    -1.3209    24.1234 F         1 MOL       0.0000
    383 S7          -9.3568   -12.4034    25.1599 S         1 MOL       0.0000
    384 S8          -9.6685     6.1986    14.7242 S         1 MOL       0.0000
    385 Ti17        -9.3724    16.8428    11.1894 Ti        1 MOL       0.0000
    386 Ti18         1.4580    19.7240     1.8246 Ti        1 MOL       0.0000
    387 Ti19        -5.2758    12.9066     9.3694 Ti        1 MOL       0.0000
    388 Ti20        -3.7646    22.0687     3.5964 Ti        1 MOL       0.0000
    389 Ti21        -4.7631    23.7470     1.6920 Ti        1 MOL       0.0000
    390 Ti22        -3.3876    12.6522    11.3228 Ti        1 MOL       0.0000
    391 Ti23        -8.4232    15.1069     9.2979 Ti        1 MOL       0.0000
    392 Ti24        -0.5298    20.0265     3.6721 Ti        1 MOL       0.0000
    393 H113        -8.8706    20.7399    10.9699 H         1 MOL       0.0000
    394 H114         2.2668    15.8179     2.1453 H         1 MOL       0.0000
    395 H115       -13.3323    16.0861    10.8070 H         1 MOL       0.0000
    396 H116         4.8402    21.7283     2.0252 H         1 MOL       0.0000
    397 H117        -2.4119     8.6177    10.9369 H         1 MOL       0.0000
    398 H118        -8.8217    23.1571     2.0141 H         1 MOL       0.0000
    399 H119        -8.9037    15.0442    12.9139 H         1 MOL       0.0000
    400 H120        -0.4175    19.4813     0.1247 H         1 MOL       0.0000
    401 H121        -2.8776    11.9851     5.8117 H         1 MOL       0.0000
    402 H122        -5.4880    23.9057     7.2153 H         1 MOL       0.0000
    403 H123       -12.4959    18.4955     8.9420 H         1 MOL       0.0000
    404 H124         4.2128    17.6396     4.1306 H         1 MOL       0.0000
    405 H125       -10.1948    17.0481     5.6082 H         1 MOL       0.0000
    406 H126        -7.8632    25.5749     4.0452 H         1 MOL       0.0000
    407 H127        -4.3709    26.8498     2.5475 H         1 MOL       0.0000
    408 H128         2.1090    13.7991     3.3478 H         1 MOL       0.0000
    409 H129        -1.6719    21.7488     2.2578 H         1 MOL       0.0000
    410 H130        -6.3565    14.7550    10.6630 H         1 MOL       0.0000
    411 H131         0.8472    14.5871     9.7125 H         1 MOL       0.0000
    412 H132        -0.6339    14.1180    10.4598 H         1 MOL       0.0000
    413 H133         1.4213    19.0207     8.6136 H         1 MOL       0.0000
    414 H134         0.8516    19.3793     6.9950 H         1 MOL       0.0000
    415 H135         0.3584     9.6322     9.5224 H         1 MOL       0.0000
    416 H136        -0.9208    10.7328     9.9798 H         1 MOL       0.0000
    417 C125         2.0361    18.9827     4.6881 C         1 MOL       0.0000
    418 C126       -10.3330    17.1042     8.3424 C         1 MOL       0.0000
    419 C127        -2.6952    11.8959     8.4447 C         1 MOL       0.0000
    420 C128        -5.7007    24.0392     4.5557 C         1 MOL       0.0000
    421 C129         2.9321    18.3784     5.6833 C         1 MOL       0.0000
    422 C130       -11.2649    17.7292     7.3653 C         1 MOL       0.0000
    423 C131        -1.7550    11.2815     7.4975 C         1 MOL       0.0000
    424 C132        -6.5905    24.6860     5.5555 C         1 MOL       0.0000
    425 C133         2.6833    18.4533     7.0897 C         1 MOL       0.0000
    426 C134       -11.0485    17.6092     5.9773 C         1 MOL       0.0000
    427 C135        -0.6256    10.5212     7.9506 C         1 MOL       0.0000
    428 C136        -7.6852    25.4590     5.1106 C         1 MOL       0.0000
    429 C137        -6.3360    24.5152     6.9104 C         1 MOL       0.0000
    430 C138        -2.0028    11.4136     6.1136 C         1 MOL       0.0000
    431 C139         4.0658    17.6794     5.2076 C         1 MOL       0.0000
    432 C140       -12.3651    18.4216     7.8640 C         1 MOL       0.0000
    433 C141         2.2478    15.8970     0.0012 C         1 MOL       0.0000
    434 C142        -4.2219    27.6886     0.0262 C         1 MOL       0.0000
    435 C143         0.0973    14.5941    12.9702 C         1 MOL       0.0000
    436 C144       -13.2610    16.1365    12.9508 C         1 MOL       0.0000
    437 C145        -3.0178    19.7255     5.5610 C         1 MOL       0.0000
    438 C146        -7.7739    12.6311     7.4791 C         1 MOL       0.0000
    439 C147        -2.5230    10.2858    13.0730 C         1 MOL       0.0000
    440 C148        -4.3146    26.2551    -0.0113 C         1 MOL       0.0000
    441 C149        -1.2006    13.9773    13.0170 C         1 MOL       0.0000
    442 C150       -11.8587    16.5509    12.9753 C         1 MOL       0.0000
    443 C151         2.2872    15.2279     1.2309 C         1 MOL       0.0000
    444 C152        -8.8596    21.3283    11.8838 C         1 MOL       0.0000
    445 C153       -10.6124    22.4919     1.0191 C         1 MOL       0.0000
    446 C154       -13.8938    15.9068    11.7223 C         1 MOL       0.0000
    447 C155         0.7919    14.8624    11.7368 C         1 MOL       0.0000
    448 C156        -9.3232    22.9721     1.0683 C         1 MOL       0.0000
    449 C157        -2.3703     8.0905    11.8859 C         1 MOL       0.0000
    450 C158         2.3089    13.8268     1.3125 C         1 MOL       0.0000
    451 N21          2.3640    13.2279     2.5506 N         1 MOL       0.0000
    452 N22          0.2129    14.6795    10.4978 N         1 MOL       0.0000
    453 N23          1.6025    19.0996     7.6210 N         1 MOL       0.0000
    454 N24         -0.2946    10.3630     9.2680 N         1 MOL       0.0000
    455 O81          0.8598    19.3878     5.0539 O         1 MOL       0.0000
    456 O82         -9.5640    16.1533     7.9441 O         1 MOL       0.0000
    457 O83         -2.3138    12.0203     9.6658 O         1 MOL       0.0000
    458 O84         -5.7665    24.4689     3.3561 O         1 MOL       0.0000
    459 O85         -4.9302    23.0820     4.9422 O         1 MOL       0.0000
    460 O86         -3.8657    12.2643     8.0392 O         1 MOL       0.0000
    461 O87          2.4480    19.0635     3.4764 O         1 MOL       0.0000
    462 O88        -10.3750    17.5404     9.5421 O         1 MOL       0.0000
    463 O89         -0.2246    18.8086     2.4774 O         1 MOL       0.0000
    464 O90         -7.8708    16.6672    10.0424 O         1 MOL       0.0000
    465 O91          0.7142    21.0959     2.9273 O         1 MOL       0.0000
    466 O92         -9.6230    14.9425    10.5351 O         1 MOL       0.0000
    467 O93         -5.0164    11.7346    10.6298 O         1 MOL       0.0000
    468 O94         -3.2480    23.6300     2.8579 O         1 MOL       0.0000
    469 O95         -4.0625    13.9961    10.1657 O         1 MOL       0.0000
    470 O96         -4.9542    21.8729     2.3405 O         1 MOL       0.0000
    471 O97         -1.7967    19.5457     5.2067 O         1 MOL       0.0000
    472 O98         -8.4316    13.6661     7.8573 O         1 MOL       0.0000
    473 O99         -2.6452    10.8804    11.9319 O         1 MOL       0.0000
    474 O100        -4.3977    25.5536     1.0839 O         1 MOL       0.0000
    475 O101        -1.8431    13.6685    11.9268 O         1 MOL       0.0000
    476 O102        -6.6337    23.7179     1.0238 O         1 MOL       0.0000
    477 O103        -6.6121    12.3366     7.9369 O         1 MOL       0.0000
    478 O104        -3.7597    20.6464     5.0676 O         1 MOL       0.0000
    479 O105         2.8951    20.7431     1.0700 O         1 MOL       0.0000
    480 O106       -11.2592    16.7827    11.8578 O         1 MOL       0.0000
    481 O107         2.0995    17.9888     1.0994 O         1 MOL       0.0000
    482 O108        -8.9910    18.5650    11.9391 O         1 MOL       0.0000
    483 O109        -2.0328    21.2001     2.9784 O         1 MOL       0.0000
    484 O110        -6.7347    14.1963     9.9595 O         1 MOL       0.0000
    485 O111         0.4213    19.9749     0.0456 O         1 MOL       0.0000
    486 O112        -8.7813    16.0110    12.9739 O         1 MOL       0.0000
    487 H137        -2.7249    16.1316     8.5155 H         1 MOL       0.0000
    488 H138       -13.1187    25.2650     6.0020 H         1 MOL       0.0000
    489 H139        -2.0905    24.6975     5.7422 H         1 MOL       0.0000
    490 H140        -1.7961    17.6222     6.7199 H         1 MOL       0.0000
    491 H141        -6.2777    18.5566     8.6794 H         1 MOL       0.0000
    492 H142         5.6007    11.9056     7.0550 H         1 MOL       0.0000
    493 H143        -4.9920    16.5562     9.4067 H         1 MOL       0.0000
    494 H144        -5.3438    20.0385     6.8822 H         1 MOL       0.0000
    495 H145        -0.7594    22.9240     4.6259 H         1 MOL       0.0000
    496 H146         1.7173    22.9301     4.7564 H         1 MOL       0.0000
    497 C159        -3.5476    18.8770     6.6541 C         1 MOL       0.0000
    498 C160        -4.5767    17.2275     8.6554 C         1 MOL       0.0000
    499 C161        -0.2501    23.7046     5.1902 C         1 MOL       0.0000
    500 C162        -8.4376    11.6499     6.5940 C         1 MOL       0.0000
    501 C163        -4.7997    19.1635     7.2257 C         1 MOL       0.0000
    502 C164        -3.2988    16.9776     8.1410 C         1 MOL       0.0000
    503 C165        -1.0037    24.7093     5.8092 C         1 MOL       0.0000
    504 C166       -14.2029    25.2523     5.9125 C         1 MOL       0.0000
    505 C167         1.1474    23.7063     5.2647 C         1 MOL       0.0000
    506 C168         6.1609    11.1109     6.5689 C         1 MOL       0.0000
    507 C169        -2.7831    17.8013     7.1412 C         1 MOL       0.0000
    508 C170        -5.3150    18.3372     8.2246 C         1 MOL       0.0000
    509 N25         -1.1782    25.2175     1.2437 N         1 MOL       0.0000
    510 N26         -4.5734    17.0125    12.9532 N         1 MOL       0.0000
    511 C171        -1.4147    25.7195    -0.0210 C         1 MOL       0.0000
    512 C172        -5.3079    17.9157    12.2024 C         1 MOL       0.0000
    513 C173        -2.3292    17.1239    11.9438 C         1 MOL       0.0000
    514 C174        -1.5453    25.8862     2.5042 C         1 MOL       0.0000
    515 C175        -0.2579    24.2441     1.1381 C         1 MOL       0.0000
    516 C176        -3.4419    16.2124    12.4609 C         1 MOL       0.0000
    517 H147        -6.6239    19.5505    12.8890 H         1 MOL       0.0000
    518 H148        -5.1866    18.0035    11.1381 H         1 MOL       0.0000
    519 H149        -2.6924    17.7411    11.1134 H         1 MOL       0.0000
    520 H150        -1.5979    26.9590     2.3200 H         1 MOL       0.0000
    521 H151        -1.9528    17.7821    12.7384 H         1 MOL       0.0000
    522 H152        -2.4961    25.4944     2.8493 H         1 MOL       0.0000
    523 H153        -1.5120    16.5079    11.5545 H         1 MOL       0.0000
    524 H154        -3.8147    15.5539    11.6744 H         1 MOL       0.0000
    525 H155        -0.7775    25.6932     3.2548 H         1 MOL       0.0000
    526 H156         0.1873    23.7148     1.9791 H         1 MOL       0.0000
    527 H157         1.5012    22.6608     0.2146 H         1 MOL       0.0000
    528 N27          2.3074     7.2904    12.7637 N         1 MOL       0.0000
    529 C177        -5.4556    15.1707     1.0961 C         1 MOL       0.0000
    530 C178         3.2297     9.5695     9.4610 C         1 MOL       0.0000
    531 O113        -8.2968    15.1217     2.7601 O         1 MOL       0.0000
    532 O114       -12.7639    27.1268     1.2752 O         1 MOL       0.0000
    533 O115        -5.2510    21.0824    10.3407 O         1 MOL       0.0000
    534 O116        -3.2927    21.2144     8.7179 O         1 MOL       0.0000
    535 F25         -5.7888    15.9446     2.2054 F         1 MOL       0.0000
    536 F26          3.0384    11.6690    11.5920 F         1 MOL       0.0000
    537 F27         -4.3274    15.8408     0.6274 F         1 MOL       0.0000
    538 F28         -6.8592    14.8587     4.4387 F         1 MOL       0.0000
    539 F29          2.6864    10.7713     9.3829 F         1 MOL       0.0000
    540 F30         -3.7862    23.5443     8.2409 F         1 MOL       0.0000
    541 S9           7.7995    13.7842     0.7471 S         1 MOL       0.0000
    542 S10         -3.8515    21.3352    10.0645 S         1 MOL       0.0000
    543 N28         -2.9523    16.1957     3.5771 N         1 MOL       0.0000
    544 N29         -4.7916    16.9693     4.4968 N         1 MOL       0.0000
    545 C179        -1.7726    16.1138     2.6785 C         1 MOL       0.0000
    546 C180        -3.8854    17.1651     3.5250 C         1 MOL       0.0000
    547 C181        -3.2870    15.3379     4.6198 C         1 MOL       0.0000
    548 C182        -1.5796    14.7385     2.0502 C         1 MOL       0.0000
    549 C183        -4.4296    15.8170     5.1813 C         1 MOL       0.0000
    550 C184        -6.0709    17.6756     4.6183 C         1 MOL       0.0000
    551 H158        -0.9021    16.4195     3.2612 H         1 MOL       0.0000
    552 H159        -1.9358    16.8679     1.8991 H         1 MOL       0.0000
    553 H160        -3.9448    17.9473     2.7762 H         1 MOL       0.0000
    554 H161        -0.5790    14.7064     1.6060 H         1 MOL       0.0000
    555 H162        -2.7030    14.4631     4.8406 H         1 MOL       0.0000
    556 H163        -6.1828    17.9910     5.6609 H         1 MOL       0.0000
    557 H164        -6.0419    18.5685     3.9602 H         1 MOL       0.0000
    558 H165        -1.6475    13.9147     2.7725 H         1 MOL       0.0000
    559 H166        -5.0443    15.4138     5.9687 H         1 MOL       0.0000
    560 H167        -2.3153    14.5134     1.2595 H         1 MOL       0.0000
    561 H168        -6.8788    16.9944     4.3472 H         1 MOL       0.0000
    562 N30         -6.5016    15.1386     0.1355 N         1 MOL       0.0000
    563 C185        -8.0498    14.4596     3.8178 C         1 MOL       0.0000
    564 C186         2.8912     8.6984    10.6778 C         1 MOL       0.0000
    565 O117       -11.2379    10.5761    12.6366 O         1 MOL       0.0000
    566 O118        -4.6817    13.1975     3.0612 O         1 MOL       0.0000
    567 O119       -10.2842     8.8672    11.0004 O         1 MOL       0.0000
    568 O120       -10.4347    27.6860     0.6405 O         1 MOL       0.0000
    569 F31         -9.0485    14.7062     4.8301 F         1 MOL       0.0000
    570 F32          1.6955     9.0805    11.1116 F         1 MOL       0.0000
    571 F33          0.3653    27.0347     1.3854 F         1 MOL       0.0000
    572 F34         -7.9218    13.1092     3.7255 F         1 MOL       0.0000
    573 F35          4.5796     9.6151     9.2800 F         1 MOL       0.0000
    574 F36         -2.8481    20.3581    10.9714 F         1 MOL       0.0000
    575 S11        -11.2388     9.2756    12.0079 S         1 MOL       0.0000
    576 S12        -11.5505    27.8776     1.5722 S         1 MOL       0.0000
    577 Ti25       -14.0074     9.7768    24.2844 Ti        1 MOL       0.0000
    578 Ti26        -3.1770    12.6580    14.9196 Ti        1 MOL       0.0000
    579 Ti27        -9.9108     5.8406    22.4644 Ti        1 MOL       0.0000
    580 Ti28        -8.3996    15.0027    16.6914 Ti        1 MOL       0.0000
    581 Ti29        -9.3981    16.6810    14.7870 Ti        1 MOL       0.0000
    582 Ti30        -8.0226     5.5862    24.4178 Ti        1 MOL       0.0000
    583 Ti31       -13.0582     8.0409    22.3929 Ti        1 MOL       0.0000
    584 Ti32        -5.1648    12.9605    16.7671 Ti        1 MOL       0.0000
    585 H169       -13.5056    13.6739    24.0649 H         1 MOL       0.0000
    586 H170        -2.3682     8.7519    15.2403 H         1 MOL       0.0000
    587 H171       -17.9673     9.0201    23.9020 H         1 MOL       0.0000
    588 H172         0.2052    14.6623    15.1202 H         1 MOL       0.0000
    589 H173        -7.0469     1.5517    24.0319 H         1 MOL       0.0000
    590 H174       -13.4567    16.0911    15.1091 H         1 MOL       0.0000
    591 H175       -13.5387     7.9782    26.0089 H         1 MOL       0.0000
    592 H176        -5.0525    12.4153    13.2196 H         1 MOL       0.0000
    593 H177        -7.5126     4.9191    18.9067 H         1 MOL       0.0000
    594 H178       -10.1230    16.8397    20.3103 H         1 MOL       0.0000
    595 H179       -17.1309    11.4295    22.0370 H         1 MOL       0.0000
    596 H180        -0.4222    10.5736    17.2256 H         1 MOL       0.0000
    597 H181       -14.8298     9.9821    18.7032 H         1 MOL       0.0000
    598 H182       -12.4982    18.5089    17.1402 H         1 MOL       0.0000
    599 H183        -9.0059    19.7838    15.6425 H         1 MOL       0.0000
    600 H184        -2.5260     6.7331    16.4428 H         1 MOL       0.0000
    601 H185        -6.3069    14.6828    15.3528 H         1 MOL       0.0000
    602 H186       -10.9915     7.6890    23.7580 H         1 MOL       0.0000
    603 H187        -3.7878     7.5211    22.8075 H         1 MOL       0.0000
    604 H188        -5.2689     7.0520    23.5548 H         1 MOL       0.0000
    605 H189        -3.2137    11.9547    21.7085 H         1 MOL       0.0000
    606 H190        -3.7834    12.3133    20.0900 H         1 MOL       0.0000
    607 H191        -4.2766     2.5662    22.6174 H         1 MOL       0.0000
    608 H192        -5.5558     3.6668    23.0748 H         1 MOL       0.0000
    609 C187        -2.5989    11.9167    17.7831 C         1 MOL       0.0000
    610 C188       -14.9680    10.0381    21.4374 C         1 MOL       0.0000
    611 C189        -7.3302     4.8299    21.5397 C         1 MOL       0.0000
    612 C190       -10.3357    16.9732    17.6507 C         1 MOL       0.0000
    613 C191        -1.7029    11.3124    18.7783 C         1 MOL       0.0000
    614 C192       -15.8999    10.6632    20.4603 C         1 MOL       0.0000
    615 C193        -6.3900     4.2155    20.5925 C         1 MOL       0.0000
    616 C194       -11.2255    17.6200    18.6505 C         1 MOL       0.0000
    617 C195        -1.9517    11.3873    20.1847 C         1 MOL       0.0000
    618 C196       -15.6835    10.5432    19.0723 C         1 MOL       0.0000
    619 C197        -5.2606     3.4552    21.0456 C         1 MOL       0.0000
    620 C198       -12.3202    18.3930    18.2056 C         1 MOL       0.0000
    621 C199       -10.9710    17.4492    20.0054 C         1 MOL       0.0000
    622 C200        -6.6378     4.3476    19.2086 C         1 MOL       0.0000
    623 C201        -0.5692    10.6134    18.3026 C         1 MOL       0.0000
    624 C202       -17.0001    11.3556    20.9590 C         1 MOL       0.0000
    625 C203        -2.3872     8.8310    13.0962 C         1 MOL       0.0000
    626 C204        -8.8569    20.6226    13.1212 C         1 MOL       0.0000
    627 C205        -4.5377     7.5281    26.0652 C         1 MOL       0.0000
    628 C206       -17.8960     9.0705    26.0458 C         1 MOL       0.0000
    629 C207        -7.6528    12.6595    18.6560 C         1 MOL       0.0000
    630 C208       -12.4089     5.5651    20.5741 C         1 MOL       0.0000
    631 C209        -7.1580     3.2199    26.1680 C         1 MOL       0.0000
    632 C210        -8.9496    19.1891    13.0837 C         1 MOL       0.0000
    633 C211        -5.8355     6.9113    26.1120 C         1 MOL       0.0000
    634 C212       -16.4937     9.4849    26.0703 C         1 MOL       0.0000
    635 C213        -2.3478     8.1619    14.3259 C         1 MOL       0.0000
    636 C214       -13.4946    14.2623    24.9788 C         1 MOL       0.0000
    637 C215       -15.2474    15.4259    14.1141 C         1 MOL       0.0000
    638 C216       -18.5288     8.8408    24.8173 C         1 MOL       0.0000
    639 C217        -3.8431     7.7964    24.8318 C         1 MOL       0.0000
    640 C218       -13.9582    15.9061    14.1633 C         1 MOL       0.0000
    641 C219        -7.0053     1.0245    24.9809 C         1 MOL       0.0000
    642 C220        -2.3261     6.7608    14.4075 C         1 MOL       0.0000
    643 N31         -2.2710     6.1619    15.6456 N         1 MOL       0.0000
    644 N32         -4.4221     7.6135    23.5928 N         1 MOL       0.0000
    645 N33         -3.0325    12.0336    20.7160 N         1 MOL       0.0000
    646 N34         -4.9296     3.2970    22.3630 N         1 MOL       0.0000
    647 O121        -3.7752    12.3218    18.1489 O         1 MOL       0.0000
    648 O122       -14.1990     9.0873    21.0391 O         1 MOL       0.0000
    649 O123        -6.9488     4.9543    22.7608 O         1 MOL       0.0000
    650 O124       -10.4015    17.4029    16.4512 O         1 MOL       0.0000
    651 O125        -9.5652    16.0160    18.0372 O         1 MOL       0.0000
    652 O126        -8.5007     5.1983    21.1342 O         1 MOL       0.0000
    653 O127        -2.1870    11.9975    16.5714 O         1 MOL       0.0000
    654 O128       -15.0100    10.4744    22.6371 O         1 MOL       0.0000
    655 O129        -4.8596    11.7426    15.5724 O         1 MOL       0.0000
    656 O130       -12.5058     9.6012    23.1374 O         1 MOL       0.0000
    657 O131        -3.9208    14.0299    16.0223 O         1 MOL       0.0000
    658 O132       -14.2580     7.8765    23.6301 O         1 MOL       0.0000
    659 O133        -9.6515     4.6686    23.7248 O         1 MOL       0.0000
    660 O134        -7.8830    16.5640    15.9529 O         1 MOL       0.0000
    661 O135        -8.6975     6.9301    23.2607 O         1 MOL       0.0000
    662 O136        -9.5892    14.8069    15.4355 O         1 MOL       0.0000
    663 O137        -6.4317    12.4797    18.3017 O         1 MOL       0.0000
    664 O138       -13.0666     6.6001    20.9523 O         1 MOL       0.0000
    665 O139        -7.2802     3.8144    25.0269 O         1 MOL       0.0000
    666 O140        -9.0327    18.4876    14.1789 O         1 MOL       0.0000
    667 O141        -6.4781     6.6025    25.0218 O         1 MOL       0.0000
    668 O142       -11.2687    16.6519    14.1188 O         1 MOL       0.0000
    669 O143       -11.2471     5.2706    21.0319 O         1 MOL       0.0000
    670 O144        -8.3947    13.5804    18.1626 O         1 MOL       0.0000
    671 O145        -1.7399    13.6771    14.1650 O         1 MOL       0.0000
    672 O146       -15.8942     9.7167    24.9528 O         1 MOL       0.0000
    673 O147        -2.5355    10.9228    14.1944 O         1 MOL       0.0000
    674 O148       -13.6260    11.4990    25.0341 O         1 MOL       0.0000
    675 O149        -6.6678    14.1341    16.0734 O         1 MOL       0.0000
    676 O150       -11.3697     7.1303    23.0545 O         1 MOL       0.0000
    677 O151        -4.2137    12.9089    13.1406 O         1 MOL       0.0000
    678 O152       -13.4163     8.9450    26.0689 O         1 MOL       0.0000
    679 H193        -7.3599     9.0656    21.6105 H         1 MOL       0.0000
    680 H194       -17.7537    18.1990    19.0970 H         1 MOL       0.0000
    681 H195        -6.7255    17.6315    18.8372 H         1 MOL       0.0000
    682 H196        -6.4311    10.5562    19.8149 H         1 MOL       0.0000
    683 H197       -10.9127    11.4906    21.7744 H         1 MOL       0.0000
    684 H198         0.9657     4.8396    20.1500 H         1 MOL       0.0000
    685 H199        -9.6270     9.4902    22.5017 H         1 MOL       0.0000
    686 H200        -9.9788    12.9725    19.9772 H         1 MOL       0.0000
    687 H201        -5.3944    15.8580    17.7209 H         1 MOL       0.0000
    688 H202        -2.9177    15.8641    17.8514 H         1 MOL       0.0000
    689 C221        -8.1826    11.8110    19.7491 C         1 MOL       0.0000
    690 C222        -9.2117    10.1615    21.7504 C         1 MOL       0.0000
    691 C223        -4.8851    16.6386    18.2852 C         1 MOL       0.0000
    692 C224       -13.0726     4.5839    19.6890 C         1 MOL       0.0000
    693 C225        -9.4347    12.0975    20.3207 C         1 MOL       0.0000
    694 C226        -7.9338     9.9116    21.2360 C         1 MOL       0.0000
    695 C227        -5.6387    17.6433    18.9042 C         1 MOL       0.0000
    696 C228       -18.8379    18.1863    19.0075 C         1 MOL       0.0000
    697 C229        -3.4876    16.6403    18.3597 C         1 MOL       0.0000
    698 C230         1.5259     4.0449    19.6639 C         1 MOL       0.0000
    699 C231        -7.4181    10.7353    20.2362 C         1 MOL       0.0000
    700 C232        -9.9500    11.2712    21.3196 C         1 MOL       0.0000
    701 N35         -5.8132    18.1515    14.3387 N         1 MOL       0.0000
    702 N36         -9.2084     9.9465    26.0482 N         1 MOL       0.0000
    703 C233        -6.0497    18.6535    13.0740 C         1 MOL       0.0000
    704 C234        -9.9429    10.8497    25.2974 C         1 MOL       0.0000
    705 C235        -6.9642    10.0579    25.0388 C         1 MOL       0.0000
    706 C236        -6.1803    18.8202    15.5992 C         1 MOL       0.0000
    707 C237        -4.8929    17.1781    14.2331 C         1 MOL       0.0000
    708 C238        -8.0769     9.1464    25.5559 C         1 MOL       0.0000
    709 H203       -11.2589    12.4845    25.9840 H         1 MOL       0.0000
    710 H204        -9.8216    10.9375    24.2331 H         1 MOL       0.0000
    711 H205        -7.3274    10.6751    24.2084 H         1 MOL       0.0000
    712 H206        -6.2329    19.8930    15.4150 H         1 MOL       0.0000
    713 H207        -6.5878    10.7161    25.8334 H         1 MOL       0.0000
    714 H208        -7.1311    18.4284    15.9443 H         1 MOL       0.0000
    715 H209        -6.1470     9.4419    24.6495 H         1 MOL       0.0000
    716 H210        -8.4497     8.4879    24.7694 H         1 MOL       0.0000
    717 H211        -5.4125    18.6272    16.3498 H         1 MOL       0.0000
    718 H212        -4.4477    16.6488    15.0741 H         1 MOL       0.0000
    719 H213        -3.1338    15.5948    13.3096 H         1 MOL       0.0000
    720 N37         -2.3276     0.2244    25.8587 N         1 MOL       0.0000
    721 C239       -10.0906     8.1047    14.1911 C         1 MOL       0.0000
    722 C240        -1.4053     2.5035    22.5560 C         1 MOL       0.0000
    723 O153       -12.9318     8.0557    15.8551 O         1 MOL       0.0000
    724 O154       -17.3989    20.0608    14.3702 O         1 MOL       0.0000
    725 O155        -9.8860    14.0164    23.4357 O         1 MOL       0.0000
    726 O156        -7.9277    14.1484    21.8129 O         1 MOL       0.0000
    727 F37        -10.4238     8.8786    15.3004 F         1 MOL       0.0000
    728 F38         -1.5966     4.6030    24.6870 F         1 MOL       0.0000
    729 F39         -8.9624     8.7748    13.7224 F         1 MOL       0.0000
    730 F40        -11.4942     7.7927    17.5337 F         1 MOL       0.0000
    731 F41         -1.9486     3.7053    22.4779 F         1 MOL       0.0000
    732 F42         -8.4212    16.4783    21.3359 F         1 MOL       0.0000
    733 S13          3.1645     6.7182    13.8421 S         1 MOL       0.0000
    734 S14         -8.4865    14.2692    23.1595 S         1 MOL       0.0000
    735 N38         -7.5873     9.1297    16.6721 N         1 MOL       0.0000
    736 N39         -9.4266     9.9033    17.5918 N         1 MOL       0.0000
    737 C241        -6.4076     9.0478    15.7735 C         1 MOL       0.0000
    738 C242        -8.5204    10.0991    16.6200 C         1 MOL       0.0000
    739 C243        -7.9220     8.2719    17.7148 C         1 MOL       0.0000
    740 C244        -6.2146     7.6725    15.1452 C         1 MOL       0.0000
    741 C245        -9.0646     8.7510    18.2763 C         1 MOL       0.0000
    742 C246       -10.7059    10.6096    17.7133 C         1 MOL       0.0000
    743 H214        -5.5371     9.3535    16.3562 H         1 MOL       0.0000
    744 H215        -6.5708     9.8019    14.9941 H         1 MOL       0.0000
    745 H216        -8.5798    10.8813    15.8712 H         1 MOL       0.0000
    746 H217        -5.2140     7.6404    14.7010 H         1 MOL       0.0000
    747 H218        -7.3380     7.3971    17.9356 H         1 MOL       0.0000
    748 H219       -10.8178    10.9250    18.7559 H         1 MOL       0.0000
    749 H220       -10.6769    11.5025    17.0552 H         1 MOL       0.0000
    750 H221        -6.2825     6.8487    15.8675 H         1 MOL       0.0000
    751 H222        -9.6793     8.3478    19.0637 H         1 MOL       0.0000
    752 H223        -6.9503     7.4474    14.3545 H         1 MOL       0.0000
    753 H224       -11.5138     9.9284    17.4422 H         1 MOL       0.0000
    754 N40        -11.1366     8.0726    13.2305 N         1 MOL       0.0000
    755 C247       -12.6848     7.3936    16.9128 C         1 MOL       0.0000
    756 C248        -1.7438     1.6324    23.7728 C         1 MOL       0.0000
    757 O157       -15.8729     3.5101    25.7316 O         1 MOL       0.0000
    758 O158        -9.3167     6.1315    16.1562 O         1 MOL       0.0000
    759 O159       -14.9192     1.8012    24.0954 O         1 MOL       0.0000
    760 O160       -15.0697    20.6200    13.7355 O         1 MOL       0.0000
    761 F43        -13.6835     7.6402    17.9251 F         1 MOL       0.0000
    762 F44         -2.9395     2.0145    24.2066 F         1 MOL       0.0000
    763 F45         -4.2697    19.9687    14.4804 F         1 MOL       0.0000
    764 F46        -12.5568     6.0432    16.8205 F         1 MOL       0.0000
    765 F47         -0.0554     2.5491    22.3750 F         1 MOL       0.0000
    766 F48         -7.4831    13.2921    24.0664 F         1 MOL       0.0000
    767 S15        -15.8738     2.2096    25.1029 S         1 MOL       0.0000
    768 S16        -16.1855    20.8116    14.6672 S         1 MOL       0.0000
    769 Ti33        13.1446     1.6728    11.3364 Ti        1 MOL       0.0000
    770 Ti34        23.9750     4.5540     1.9716 Ti        1 MOL       0.0000
    771 Ti35        17.2413    -2.2634     9.5164 Ti        1 MOL       0.0000
    772 Ti36        18.7524     6.8987     3.7434 Ti        1 MOL       0.0000
    773 Ti37        17.7539     8.5770     1.8390 Ti        1 MOL       0.0000
    774 Ti38        19.1295    -2.5178    11.4698 Ti        1 MOL       0.0000
    775 Ti39        14.0938    -0.0631     9.4449 Ti        1 MOL       0.0000
    776 Ti40        21.9872     4.8565     3.8191 Ti        1 MOL       0.0000
    777 H225        13.6464     5.5698    11.1169 H         1 MOL       0.0000
    778 H226        24.7838     0.6479     2.2923 H         1 MOL       0.0000
    779 H227         9.1847     0.9161    10.9540 H         1 MOL       0.0000
    780 H228        27.3572     6.5583     2.1722 H         1 MOL       0.0000
    781 H229        20.1051    -6.5523    11.0839 H         1 MOL       0.0000
    782 H230        13.6953     7.9871     2.1610 H         1 MOL       0.0000
    783 H231        13.6133    -0.1258    13.0609 H         1 MOL       0.0000
    784 H232        22.0995     4.3113     0.2717 H         1 MOL       0.0000
    785 H233        19.6394    -3.1849     5.9587 H         1 MOL       0.0000
    786 H234        17.0290     8.7357     7.3624 H         1 MOL       0.0000
    787 H235        10.0211     3.3255     9.0890 H         1 MOL       0.0000
    788 H236        26.7298     2.4697     4.2776 H         1 MOL       0.0000
    789 H237        12.3222     1.8781     5.7552 H         1 MOL       0.0000
    790 H238        14.6538    10.4049     4.1922 H         1 MOL       0.0000
    791 H239        18.1461    11.6798     2.6945 H         1 MOL       0.0000
    792 H240        24.6260    -1.3709     3.4948 H         1 MOL       0.0000
    793 H241        20.8451     6.5788     2.4048 H         1 MOL       0.0000
    794 H242        16.1605    -0.4150    10.8100 H         1 MOL       0.0000
    795 H243        23.3642    -0.5829     9.8595 H         1 MOL       0.0000
    796 H244        21.8831    -1.0520    10.6068 H         1 MOL       0.0000
    797 H245        23.9383     3.8507     8.7606 H         1 MOL       0.0000
    798 H246        23.3686     4.2093     7.1420 H         1 MOL       0.0000
    799 H247        22.8754    -5.5378     9.6694 H         1 MOL       0.0000
    800 H248        21.5962    -4.4372    10.1268 H         1 MOL       0.0000
    801 C249        24.5531     3.8127     4.8351 C         1 MOL       0.0000
    802 C250        12.1840     1.9341     8.4894 C         1 MOL       0.0000
    803 C251        19.8218    -3.2741     8.5917 C         1 MOL       0.0000
    804 C252        16.8163     8.8692     4.7027 C         1 MOL       0.0000
    805 C253        25.4491     3.2084     5.8303 C         1 MOL       0.0000
    806 C254        11.2521     2.5592     7.5123 C         1 MOL       0.0000
    807 C255        20.7620    -3.8885     7.6445 C         1 MOL       0.0000
    808 C256        15.9265     9.5160     5.7025 C         1 MOL       0.0000
    809 C257        25.2003     3.2833     7.2367 C         1 MOL       0.0000
    810 C258        11.4685     2.4392     6.1243 C         1 MOL       0.0000
    811 C259        21.8914    -4.6488     8.0976 C         1 MOL       0.0000
    812 C260        14.8318    10.2890     5.2576 C         1 MOL       0.0000
    813 C261        16.1810     9.3453     7.0574 C         1 MOL       0.0000
    814 C262        20.5142    -3.7563     6.2606 C         1 MOL       0.0000
    815 C263        26.5828     2.5094     5.3546 C         1 MOL       0.0000
    816 C264        10.1519     3.2516     8.0110 C         1 MOL       0.0000
    817 C265        24.7648     0.7270     0.1482 C         1 MOL       0.0000
    818 C266        18.2951    12.5186     0.1732 C         1 MOL       0.0000
    819 C267        22.6143    -0.5759    13.1172 C         1 MOL       0.0000
    820 C268         9.2560     0.9665    13.0978 C         1 MOL       0.0000
    821 C269        19.4992     4.5555     5.7080 C         1 MOL       0.0000
    822 C270        14.7431    -2.5389     7.6261 C         1 MOL       0.0000
    823 C271        19.9940    -4.8842    13.2200 C         1 MOL       0.0000
    824 C272        18.2024    11.0851     0.1357 C         1 MOL       0.0000
    825 C273        21.3164    -1.1927    13.1640 C         1 MOL       0.0000
    826 C274        10.6583     1.3809    13.1223 C         1 MOL       0.0000
    827 C275        24.8042     0.0579     1.3779 C         1 MOL       0.0000
    828 C276        13.6574     6.1583    12.0308 C         1 MOL       0.0000
    829 C277        11.9046     7.3219     1.1661 C         1 MOL       0.0000
    830 C278         8.6232     0.7368    11.8693 C         1 MOL       0.0000
    831 C279        23.3089    -0.3076    11.8838 C         1 MOL       0.0000
    832 C280        13.1938     7.8021     1.2153 C         1 MOL       0.0000
    833 C281        20.1467    -7.0795    12.0329 C         1 MOL       0.0000
    834 C282        24.8259    -1.3432     1.4595 C         1 MOL       0.0000
    835 N41         24.8809    -1.9421     2.6976 N         1 MOL       0.0000
    836 N42         22.7299    -0.4905    10.6448 N         1 MOL       0.0000
    837 N43         24.1195     3.9296     7.7680 N         1 MOL       0.0000
    838 N44         22.2224    -4.8070     9.4150 N         1 MOL       0.0000
    839 O161        23.3768     4.2178     5.2009 O         1 MOL       0.0000
    840 O162        12.9530     0.9833     8.0911 O         1 MOL       0.0000
    841 O163        20.2032    -3.1497     9.8128 O         1 MOL       0.0000
    842 O164        16.7505     9.2989     3.5031 O         1 MOL       0.0000
    843 O165        17.5868     7.9120     5.0892 O         1 MOL       0.0000
    844 O166        18.6513    -2.9057     8.1862 O         1 MOL       0.0000
    845 O167        24.9650     3.8935     3.6234 O         1 MOL       0.0000
    846 O168        12.1420     2.3704     9.6891 O         1 MOL       0.0000
    847 O169        22.2924     3.6386     2.6244 O         1 MOL       0.0000
    848 O170        14.6462     1.4972    10.1894 O         1 MOL       0.0000
    849 O171        23.2312     5.9259     3.0743 O         1 MOL       0.0000
    850 O172        12.8940    -0.2275    10.6821 O         1 MOL       0.0000
    851 O173        17.5006    -3.4354    10.7768 O         1 MOL       0.0000
    852 O174        19.2690     8.4600     3.0049 O         1 MOL       0.0000
    853 O175        18.4545    -1.1739    10.3127 O         1 MOL       0.0000
    854 O176        17.5628     6.7029     2.4875 O         1 MOL       0.0000
    855 O177        20.7203     4.3756     5.3537 O         1 MOL       0.0000
    856 O178        14.0854    -1.5039     8.0043 O         1 MOL       0.0000
    857 O179        19.8718    -4.2896    12.0789 O         1 MOL       0.0000
    858 O180        18.1193    10.3836     1.2309 O         1 MOL       0.0000
    859 O181        20.6739    -1.5015    12.0738 O         1 MOL       0.0000
    860 O182        15.8833     8.5479     1.1708 O         1 MOL       0.0000
    861 O183        15.9049    -2.8334     8.0839 O         1 MOL       0.0000
    862 O184        18.7573     5.4764     5.2146 O         1 MOL       0.0000
    863 O185        25.4121     5.5731     1.2170 O         1 MOL       0.0000
    864 O186        11.2578     1.6127    12.0048 O         1 MOL       0.0000
    865 O187        24.6166     2.8188     1.2464 O         1 MOL       0.0000
    866 O188        13.5260     3.3950    12.0861 O         1 MOL       0.0000
    867 O189        20.4842     6.0301     3.1254 O         1 MOL       0.0000
    868 O190        15.7823    -0.9737    10.1065 O         1 MOL       0.0000
    869 O191        22.9383     4.8049     0.1926 O         1 MOL       0.0000
    870 O192        13.7357     0.8410    13.1209 O         1 MOL       0.0000
    871 H249        19.7921     0.9616     8.6625 H         1 MOL       0.0000
    872 H250         9.3983    10.0950     6.1490 H         1 MOL       0.0000
    873 H251        20.4265     9.5275     5.8892 H         1 MOL       0.0000
    874 H252        20.7209     2.4522     6.8669 H         1 MOL       0.0000
    875 H253        16.2393     3.3866     8.8264 H         1 MOL       0.0000
    876 H254        28.1177    -3.2644     7.2020 H         1 MOL       0.0000
    877 H255        17.5250     1.3862     9.5537 H         1 MOL       0.0000
    878 H256        17.1732     4.8685     7.0292 H         1 MOL       0.0000
    879 H257        21.7576     7.7540     4.7729 H         1 MOL       0.0000
    880 H258        24.2343     7.7601     4.9034 H         1 MOL       0.0000
    881 C283        18.9694     3.7070     6.8011 C         1 MOL       0.0000
    882 C284        17.9403     2.0575     8.8024 C         1 MOL       0.0000
    883 C285        22.2669     8.5346     5.3372 C         1 MOL       0.0000
    884 C286        14.0794    -3.5201     6.7410 C         1 MOL       0.0000
    885 C287        17.7173     3.9935     7.3727 C         1 MOL       0.0000
    886 C288        19.2182     1.8076     8.2880 C         1 MOL       0.0000
    887 C289        21.5133     9.5393     5.9562 C         1 MOL       0.0000
    888 C290         8.3141    10.0823     6.0595 C         1 MOL       0.0000
    889 C291        23.6644     8.5363     5.4117 C         1 MOL       0.0000
    890 C292        28.6779    -4.0591     6.7159 C         1 MOL       0.0000
    891 C293        19.7339     2.6313     7.2882 C         1 MOL       0.0000
    892 C294        17.2020     3.1672     8.3716 C         1 MOL       0.0000
    893 N45         21.3388    10.0475     1.3907 N         1 MOL       0.0000
    894 N46         17.9436     1.8425    13.1002 N         1 MOL       0.0000
    895 C295        21.1023    10.5495     0.1260 C         1 MOL       0.0000
    896 C296        17.2091     2.7457    12.3494 C         1 MOL       0.0000
    897 C297        20.1878     1.9539    12.0908 C         1 MOL       0.0000
    898 C298        20.9717    10.7162     2.6512 C         1 MOL       0.0000
    899 C299        22.2591     9.0741     1.2851 C         1 MOL       0.0000
    900 C300        19.0751     1.0424    12.6079 C         1 MOL       0.0000
    901 H259        15.8931     4.3805    13.0360 H         1 MOL       0.0000
    902 H260        17.3304     2.8335    11.2851 H         1 MOL       0.0000
    903 H261        19.8246     2.5711    11.2604 H         1 MOL       0.0000
    904 H262        20.9191    11.7890     2.4670 H         1 MOL       0.0000
    905 H263        20.5642     2.6121    12.8854 H         1 MOL       0.0000
    906 H264        20.0209    10.3244     2.9963 H         1 MOL       0.0000
    907 H265        21.0050     1.3379    11.7015 H         1 MOL       0.0000
    908 H266        18.7023     0.3839    11.8214 H         1 MOL       0.0000
    909 H267        21.7395    10.5232     3.4018 H         1 MOL       0.0000
    910 H268        22.7043     8.5448     2.1261 H         1 MOL       0.0000
    911 H269        24.0182     7.4908     0.3616 H         1 MOL       0.0000
    912 N47         24.8244    -7.8796    12.9107 N         1 MOL       0.0000
    913 C301        17.0614     0.0007     1.2431 C         1 MOL       0.0000
    914 C302        25.7467    -5.6005     9.6080 C         1 MOL       0.0000
    915 O193        14.2202    -0.0483     2.9071 O         1 MOL       0.0000
    916 O194         9.7531    11.9568     1.4222 O         1 MOL       0.0000
    917 O195        17.2660     5.9124    10.4877 O         1 MOL       0.0000
    918 O196        19.2243     6.0444     8.8649 O         1 MOL       0.0000
    919 F49         16.7282     0.7746     2.3524 F         1 MOL       0.0000
    920 F50         25.5554    -3.5010    11.7390 F         1 MOL       0.0000
    921 F51         18.1896     0.6708     0.7744 F         1 MOL       0.0000
    922 F52         15.6578    -0.3113     4.5857 F         1 MOL       0.0000
    923 F53         25.2034    -4.3987     9.5299 F         1 MOL       0.0000
    924 F54         18.7308     8.3743     8.3879 F         1 MOL       0.0000
    925 S17         30.3165    -1.3858     0.8941 S         1 MOL       0.0000
    926 S18         18.6655     6.1652    10.2115 S         1 MOL       0.0000
    927 N48         19.5647     1.0257     3.7241 N         1 MOL       0.0000
    928 N49         17.7254     1.7993     4.6438 N         1 MOL       0.0000
    929 C303        20.7444     0.9438     2.8255 C         1 MOL       0.0000
    930 C304        18.6316     1.9951     3.6720 C         1 MOL       0.0000
    931 C305        19.2300     0.1679     4.7668 C         1 MOL       0.0000
    932 C306        20.9374    -0.4315     2.1972 C         1 MOL       0.0000
    933 C307        18.0874     0.6470     5.3283 C         1 MOL       0.0000
    934 C308        16.4461     2.5056     4.7653 C         1 MOL       0.0000
    935 H270        21.6149     1.2495     3.4082 H         1 MOL       0.0000
    936 H271        20.5812     1.6979     2.0461 H         1 MOL       0.0000
    937 H272        18.5722     2.7773     2.9232 H         1 MOL       0.0000
    938 H273        21.9380    -0.4636     1.7530 H         1 MOL       0.0000
    939 H274        19.8140    -0.7069     4.9876 H         1 MOL       0.0000
    940 H275        16.3342     2.8210     5.8079 H         1 MOL       0.0000
    941 H276        16.4751     3.3985     4.1072 H         1 MOL       0.0000
    942 H277        20.8695    -1.2553     2.9195 H         1 MOL       0.0000
    943 H278        17.4727     0.2438     6.1157 H         1 MOL       0.0000
    944 H279        20.2017    -0.6566     1.4065 H         1 MOL       0.0000
    945 H280        15.6382     1.8244     4.4942 H         1 MOL       0.0000
    946 N50         16.0154    -0.0314     0.2825 N         1 MOL       0.0000
    947 C309        14.4672    -0.7104     3.9648 C         1 MOL       0.0000
    948 C310        25.4082    -6.4716    10.8248 C         1 MOL       0.0000
    949 O197        11.2791    -4.5939    12.7836 O         1 MOL       0.0000
    950 O198        17.8353    -1.9725     3.2082 O         1 MOL       0.0000
    951 O199        12.2328    -6.3028    11.1474 O         1 MOL       0.0000
    952 O200        12.0823    12.5160     0.7875 O         1 MOL       0.0000
    953 F55         13.4685    -0.4638     4.9771 F         1 MOL       0.0000
    954 F56         24.2125    -6.0895    11.2586 F         1 MOL       0.0000
    955 F57         22.8823    11.8647     1.5324 F         1 MOL       0.0000
    956 F58         14.5952    -2.0608     3.8725 F         1 MOL       0.0000
    957 F59         27.0966    -5.5549     9.4270 F         1 MOL       0.0000
    958 F60         19.6689     5.1881    11.1184 F         1 MOL       0.0000
    959 S19         11.2782    -5.8944    12.1549 S         1 MOL       0.0000
    960 S20         10.9665    12.7076     1.7192 S         1 MOL       0.0000
    961 Ti41         8.5096    -5.3932    24.4314 Ti        1 MOL       0.0000
    962 Ti42        19.3400    -2.5120    15.0666 Ti        1 MOL       0.0000
    963 Ti43        12.6063    -9.3294    22.6114 Ti        1 MOL       0.0000
    964 Ti44        14.1174    -0.1673    16.8384 Ti        1 MOL       0.0000
    965 Ti45        13.1189     1.5110    14.9340 Ti        1 MOL       0.0000
    966 Ti46        14.4945    -9.5838    24.5648 Ti        1 MOL       0.0000
    967 Ti47         9.4588    -7.1291    22.5399 Ti        1 MOL       0.0000
    968 Ti48        17.3522    -2.2095    16.9140 Ti        1 MOL       0.0000
    969 H281         9.0114    -1.4961    24.2119 H         1 MOL       0.0000
    970 H282        20.1488    -6.4181    15.3873 H         1 MOL       0.0000
    971 H283         4.5497    -6.1499    24.0490 H         1 MOL       0.0000
    972 H284        22.7222    -0.5077    15.2672 H         1 MOL       0.0000
    973 H285        15.4701   -13.6183    24.1789 H         1 MOL       0.0000
    974 H286         9.0603     0.9211    15.2561 H         1 MOL       0.0000
    975 H287         8.9783    -7.1918    26.1559 H         1 MOL       0.0000
    976 H288        17.4645    -2.7547    13.3666 H         1 MOL       0.0000
    977 H289        15.0044   -10.2509    19.0537 H         1 MOL       0.0000
    978 H290        12.3940     1.6697    20.4573 H         1 MOL       0.0000
    979 H291         5.3861    -3.7405    22.1840 H         1 MOL       0.0000
    980 H292        22.0948    -4.5963    17.3726 H         1 MOL       0.0000
    981 H293         7.6872    -5.1879    18.8502 H         1 MOL       0.0000
    982 H294        10.0188     3.3389    17.2872 H         1 MOL       0.0000
    983 H295        13.5111     4.6138    15.7895 H         1 MOL       0.0000
    984 H296        19.9910    -8.4369    16.5898 H         1 MOL       0.0000
    985 H297        16.2101    -0.4872    15.4998 H         1 MOL       0.0000
    986 H298        11.5255    -7.4810    23.9050 H         1 MOL       0.0000
    987 H299        18.7292    -7.6489    22.9545 H         1 MOL       0.0000
    988 H300        17.2481    -8.1180    23.7018 H         1 MOL       0.0000
    989 H301        19.3033    -3.2153    21.8555 H         1 MOL       0.0000
    990 H302        18.7336    -2.8567    20.2370 H         1 MOL       0.0000
    991 H303        18.2404   -12.6038    22.7644 H         1 MOL       0.0000
    992 H304        16.9612   -11.5032    23.2218 H         1 MOL       0.0000
    993 C311        19.9181    -3.2533    17.9301 C         1 MOL       0.0000
    994 C312         7.5490    -5.1319    21.5844 C         1 MOL       0.0000
    995 C313        15.1867   -10.3401    21.6867 C         1 MOL       0.0000
    996 C314        12.1813     1.8032    17.7978 C         1 MOL       0.0000
    997 C315        20.8141    -3.8576    18.9253 C         1 MOL       0.0000
    998 C316         6.6171    -4.5068    20.6073 C         1 MOL       0.0000
    999 C317        16.1270   -10.9545    20.7395 C         1 MOL       0.0000
   1000 C318        11.2915     2.4500    18.7975 C         1 MOL       0.0000
   1001 C319        20.5653    -3.7827    20.3317 C         1 MOL       0.0000
   1002 C320         6.8335    -4.6268    19.2193 C         1 MOL       0.0000
   1003 C321        17.2564   -11.7148    21.1926 C         1 MOL       0.0000
   1004 C322        10.1968     3.2230    18.3526 C         1 MOL       0.0000
   1005 C323        11.5460     2.2792    20.1524 C         1 MOL       0.0000
   1006 C324        15.8792   -10.8223    19.3556 C         1 MOL       0.0000
   1007 C325        21.9478    -4.5566    18.4496 C         1 MOL       0.0000
   1008 C326         5.5170    -3.8144    21.1060 C         1 MOL       0.0000
   1009 C327        20.1298    -6.3390    13.2432 C         1 MOL       0.0000
   1010 C328        13.6601     5.4526    13.2682 C         1 MOL       0.0000
   1011 C329        17.9793    -7.6419    26.2122 C         1 MOL       0.0000
   1012 C330         4.6210    -6.0995    26.1928 C         1 MOL       0.0000
   1013 C331        14.8642    -2.5105    18.8030 C         1 MOL       0.0000
   1014 C332        10.1081    -9.6049    20.7211 C         1 MOL       0.0000
   1015 C333        15.3590   -11.9502    26.3150 C         1 MOL       0.0000
   1016 C334        13.5674     4.0191    13.2307 C         1 MOL       0.0000
   1017 C335        16.6814    -8.2587    26.2590 C         1 MOL       0.0000
   1018 C336         6.0233    -5.6851    26.2173 C         1 MOL       0.0000
   1019 C337        20.1692    -7.0081    14.4729 C         1 MOL       0.0000
   1020 C338         9.0224    -0.9077    25.1258 C         1 MOL       0.0000
   1021 C339         7.2696     0.2559    14.2611 C         1 MOL       0.0000
   1022 C340         3.9882    -6.3292    24.9643 C         1 MOL       0.0000
   1023 C341        18.6739    -7.3736    24.9788 C         1 MOL       0.0000
   1024 C342         8.5588     0.7361    14.3103 C         1 MOL       0.0000
   1025 C343        15.5117   -14.1455    25.1279 C         1 MOL       0.0000
   1026 C344        20.1909    -8.4092    14.5545 C         1 MOL       0.0000
   1027 N51         20.2459    -9.0081    15.7926 N         1 MOL       0.0000
   1028 N52         18.0949    -7.5564    23.7398 N         1 MOL       0.0000
   1029 N53         19.4844    -3.1364    20.8630 N         1 MOL       0.0000
   1030 N54         17.5874   -11.8730    22.5100 N         1 MOL       0.0000
   1031 O201        18.7418    -2.8482    18.2959 O         1 MOL       0.0000
   1032 O202         8.3180    -6.0827    21.1861 O         1 MOL       0.0000
   1033 O203        15.5682   -10.2157    22.9078 O         1 MOL       0.0000
   1034 O204        12.1155     2.2329    16.5982 O         1 MOL       0.0000
   1035 O205        12.9518     0.8460    18.1842 O         1 MOL       0.0000
   1036 O206        14.0163    -9.9717    21.2812 O         1 MOL       0.0000
   1037 O207        20.3300    -3.1725    16.7184 O         1 MOL       0.0000
   1038 O208         7.5070    -4.6956    22.7841 O         1 MOL       0.0000
   1039 O209        17.6574    -3.4274    15.7194 O         1 MOL       0.0000
   1040 O210        10.0112    -5.5688    23.2844 O         1 MOL       0.0000
   1041 O211        18.5962    -1.1401    16.1693 O         1 MOL       0.0000
   1042 O212         8.2590    -7.2935    23.7771 O         1 MOL       0.0000
   1043 O213        12.8655   -10.5014    23.8718 O         1 MOL       0.0000
   1044 O214        14.6340     1.3940    16.0999 O         1 MOL       0.0000
   1045 O215        13.8195    -8.2399    23.4077 O         1 MOL       0.0000
   1046 O216        12.9278    -0.3631    15.5825 O         1 MOL       0.0000
   1047 O217        16.0853    -2.6904    18.4487 O         1 MOL       0.0000
   1048 O218         9.4504    -8.5699    21.0993 O         1 MOL       0.0000
   1049 O219        15.2368   -11.3556    25.1739 O         1 MOL       0.0000
   1050 O220        13.4843     3.3176    14.3259 O         1 MOL       0.0000
   1051 O221        16.0389    -8.5675    25.1688 O         1 MOL       0.0000
   1052 O222        11.2483     1.4819    14.2658 O         1 MOL       0.0000
   1053 O223        11.2699    -9.8994    21.1789 O         1 MOL       0.0000
   1054 O224        14.1223    -1.5896    18.3096 O         1 MOL       0.0000
   1055 O225        20.7771    -1.4929    14.3120 O         1 MOL       0.0000
   1056 O226         6.6228    -5.4533    25.0998 O         1 MOL       0.0000
   1057 O227        19.9816    -4.2472    14.3414 O         1 MOL       0.0000
   1058 O228         8.8910    -3.6709    25.1811 O         1 MOL       0.0000
   1059 O229        15.8492    -1.0359    16.2204 O         1 MOL       0.0000
   1060 O230        11.1473    -8.0397    23.2015 O         1 MOL       0.0000
   1061 O231        18.3033    -2.2611    13.2876 O         1 MOL       0.0000
   1062 O232         9.1007    -6.2250    26.2159 O         1 MOL       0.0000
   1063 H305        15.1571    -6.1044    21.7575 H         1 MOL       0.0000
   1064 H306         4.7633     3.0290    19.2440 H         1 MOL       0.0000
   1065 H307        15.7915     2.4615    18.9842 H         1 MOL       0.0000
   1066 H308        16.0859    -4.6138    19.9619 H         1 MOL       0.0000
   1067 H309        11.6043    -3.6794    21.9214 H         1 MOL       0.0000
   1068 H310        23.4827   -10.3304    20.2970 H         1 MOL       0.0000
   1069 H311        12.8900    -5.6798    22.6487 H         1 MOL       0.0000
   1070 H312        12.5382    -2.1975    20.1242 H         1 MOL       0.0000
   1071 H313        17.1226     0.6880    17.8679 H         1 MOL       0.0000
   1072 H314        19.5993     0.6941    17.9984 H         1 MOL       0.0000
   1073 C345        14.3344    -3.3590    19.8961 C         1 MOL       0.0000
   1074 C346        13.3053    -5.0085    21.8974 C         1 MOL       0.0000
   1075 C347        17.6319     1.4686    18.4322 C         1 MOL       0.0000
   1076 C348         9.4444   -10.5861    19.8360 C         1 MOL       0.0000
   1077 C349        13.0823    -3.0725    20.4677 C         1 MOL       0.0000
   1078 C350        14.5832    -5.2584    21.3830 C         1 MOL       0.0000
   1079 C351        16.8783     2.4733    19.0512 C         1 MOL       0.0000
   1080 C352         3.6791     3.0163    19.1545 C         1 MOL       0.0000
   1081 C353        19.0294     1.4703    18.5067 C         1 MOL       0.0000
   1082 C354        24.0429   -11.1251    19.8109 C         1 MOL       0.0000
   1083 C355        15.0989    -4.4347    20.3832 C         1 MOL       0.0000
   1084 C356        12.5670    -3.8988    21.4666 C         1 MOL       0.0000
   1085 N55         16.7038     2.9815    14.4857 N         1 MOL       0.0000
   1086 N56         13.3086    -5.2235    26.1952 N         1 MOL       0.0000
   1087 C357        16.4673     3.4835    13.2210 C         1 MOL       0.0000
   1088 C358        12.5741    -4.3203    25.4444 C         1 MOL       0.0000
   1089 C359        15.5528    -5.1121    25.1858 C         1 MOL       0.0000
   1090 C360        16.3367     3.6502    15.7462 C         1 MOL       0.0000
   1091 C361        17.6241     2.0081    14.3801 C         1 MOL       0.0000
   1092 C362        14.4401    -6.0236    25.7029 C         1 MOL       0.0000
   1093 H315        11.2581    -2.6855    26.1310 H         1 MOL       0.0000
   1094 H316        12.6954    -4.2325    24.3801 H         1 MOL       0.0000
   1095 H317        15.1896    -4.4949    24.3554 H         1 MOL       0.0000
   1096 H318        16.2841     4.7230    15.5620 H         1 MOL       0.0000
   1097 H319        15.9292    -4.4539    25.9804 H         1 MOL       0.0000
   1098 H320        15.3859     3.2584    16.0913 H         1 MOL       0.0000
   1099 H321        16.3700    -5.7281    24.7965 H         1 MOL       0.0000
   1100 H322        14.0673    -6.6821    24.9164 H         1 MOL       0.0000
   1101 H323        17.1045     3.4572    16.4968 H         1 MOL       0.0000
   1102 H324        18.0693     1.4788    15.2211 H         1 MOL       0.0000
   1103 H325        19.3832     0.4248    13.4566 H         1 MOL       0.0000
   1104 N57         20.1894   -14.9456    26.0057 N         1 MOL       0.0000
   1105 C363        12.4264    -7.0653    14.3381 C         1 MOL       0.0000
   1106 C364        21.1117   -12.6665    22.7030 C         1 MOL       0.0000
   1107 O233         9.5852    -7.1143    16.0021 O         1 MOL       0.0000
   1108 O234         5.1181     4.8908    14.5172 O         1 MOL       0.0000
   1109 O235        12.6310    -1.1536    23.5827 O         1 MOL       0.0000
   1110 O236        14.5893    -1.0216    21.9599 O         1 MOL       0.0000
   1111 F61         12.0932    -6.2914    15.4474 F         1 MOL       0.0000
   1112 F62         20.9204   -10.5670    24.8340 F         1 MOL       0.0000
   1113 F63         13.5546    -6.3952    13.8694 F         1 MOL       0.0000
   1114 F64         11.0228    -7.3773    17.6807 F         1 MOL       0.0000
   1115 F65         20.5684   -11.4647    22.6249 F         1 MOL       0.0000
   1116 F66         14.0958     1.3083    21.4829 F         1 MOL       0.0000
   1117 S21         25.6815    -8.4518    13.9891 S         1 MOL       0.0000
   1118 S22         14.0305    -0.9008    23.3065 S         1 MOL       0.0000
   1119 N58         14.9297    -6.0403    16.8191 N         1 MOL       0.0000
   1120 N59         13.0904    -5.2667    17.7388 N         1 MOL       0.0000
   1121 C365        16.1094    -6.1222    15.9205 C         1 MOL       0.0000
   1122 C366        13.9966    -5.0709    16.7670 C         1 MOL       0.0000
   1123 C367        14.5950    -6.8981    17.8618 C         1 MOL       0.0000
   1124 C368        16.3024    -7.4975    15.2922 C         1 MOL       0.0000
   1125 C369        13.4524    -6.4190    18.4233 C         1 MOL       0.0000
   1126 C370        11.8111    -4.5604    17.8603 C         1 MOL       0.0000
   1127 H326        16.9799    -5.8165    16.5032 H         1 MOL       0.0000
   1128 H327        15.9462    -5.3681    15.1411 H         1 MOL       0.0000
   1129 H328        13.9372    -4.2887    16.0182 H         1 MOL       0.0000
   1130 H329        17.3030    -7.5296    14.8480 H         1 MOL       0.0000
   1131 H330        15.1790    -7.7729    18.0826 H         1 MOL       0.0000
   1132 H331        11.6992    -4.2450    18.9029 H         1 MOL       0.0000
   1133 H332        11.8401    -3.6675    17.2022 H         1 MOL       0.0000
   1134 H333        16.2345    -8.3213    16.0145 H         1 MOL       0.0000
   1135 H334        12.8377    -6.8222    19.2107 H         1 MOL       0.0000
   1136 H335        15.5667    -7.7226    14.5015 H         1 MOL       0.0000
   1137 H336        11.0032    -5.2416    17.5892 H         1 MOL       0.0000
   1138 N60         11.3804    -7.0974    13.3775 N         1 MOL       0.0000
   1139 C371         9.8322    -7.7764    17.0598 C         1 MOL       0.0000
   1140 C372        20.7732   -13.5376    23.9198 C         1 MOL       0.0000
   1141 O237         6.6441   -11.6599    25.8786 O         1 MOL       0.0000
   1142 O238        13.2003    -9.0385    16.3032 O         1 MOL       0.0000
   1143 O239         7.5978   -13.3688    24.2424 O         1 MOL       0.0000
   1144 O240         7.4473     5.4500    13.8825 O         1 MOL       0.0000
   1145 F67          8.8335    -7.5298    18.0721 F         1 MOL       0.0000
   1146 F68         19.5775   -13.1555    24.3536 F         1 MOL       0.0000
   1147 F69         18.2473     4.7987    14.6274 F         1 MOL       0.0000
   1148 F70          9.9602    -9.1268    16.9675 F         1 MOL       0.0000
   1149 F71         22.4616   -12.6209    22.5220 F         1 MOL       0.0000
   1150 F72         15.0339    -1.8779    24.2134 F         1 MOL       0.0000
   1151 S23          6.6432   -12.9604    25.2499 S         1 MOL       0.0000
   1152 S24          6.3315     5.6416    14.8142 S         1 MOL       0.0000
   1153 Ti49         6.6276    16.2858    11.2794 Ti        1 MOL       0.0000
   1154 Ti50        17.4580    19.1670     1.9146 Ti        1 MOL       0.0000
   1155 Ti51        10.7242    12.3496     9.4594 Ti        1 MOL       0.0000
   1156 Ti52        12.2354    21.5117     3.6864 Ti        1 MOL       0.0000
   1157 Ti53        11.2369    23.1900     1.7820 Ti        1 MOL       0.0000
   1158 Ti54        12.6125    12.0952    11.4128 Ti        1 MOL       0.0000
   1159 Ti55         7.5768    14.5499     9.3879 Ti        1 MOL       0.0000
   1160 Ti56        15.4702    19.4695     3.7621 Ti        1 MOL       0.0000
   1161 H337         7.1294    20.1828    11.0599 H         1 MOL       0.0000
   1162 H338        18.2668    15.2609     2.2353 H         1 MOL       0.0000
   1163 H339         2.6677    15.5291    10.8970 H         1 MOL       0.0000
   1164 H340        20.8402    21.1713     2.1152 H         1 MOL       0.0000
   1165 H341        13.5881     8.0607    11.0269 H         1 MOL       0.0000
   1166 H342         7.1783    22.6001     2.1040 H         1 MOL       0.0000
   1167 H343         7.0963    14.4872    13.0039 H         1 MOL       0.0000
   1168 H344        15.5825    18.9243     0.2147 H         1 MOL       0.0000
   1169 H345        13.1224    11.4281     5.9017 H         1 MOL       0.0000
   1170 H346        10.5120    23.3487     7.3053 H         1 MOL       0.0000
   1171 H347         3.5041    17.9385     9.0320 H         1 MOL       0.0000
   1172 H348        20.2128    17.0826     4.2206 H         1 MOL       0.0000
   1173 H349         5.8052    16.4911     5.6982 H         1 MOL       0.0000
   1174 H350         8.1368    25.0179     4.1352 H         1 MOL       0.0000
   1175 H351        11.6291    26.2928     2.6375 H         1 MOL       0.0000
   1176 H352        18.1090    13.2421     3.4378 H         1 MOL       0.0000
   1177 H353        14.3281    21.1918     2.3478 H         1 MOL       0.0000
   1178 H354         9.6435    14.1980    10.7530 H         1 MOL       0.0000
   1179 H355        16.8472    14.0301     9.8025 H         1 MOL       0.0000
   1180 H356        15.3661    13.5610    10.5498 H         1 MOL       0.0000
   1181 H357        17.4213    18.4637     8.7035 H         1 MOL       0.0000
   1182 H358        16.8516    18.8223     7.0850 H         1 MOL       0.0000
   1183 H359        16.3584     9.0752     9.6124 H         1 MOL       0.0000
   1184 H360        15.0792    10.1758    10.0698 H         1 MOL       0.0000
   1185 C373        18.0361    18.4257     4.7781 C         1 MOL       0.0000
   1186 C374         5.6670    16.5472     8.4324 C         1 MOL       0.0000
   1187 C375        13.3048    11.3389     8.5347 C         1 MOL       0.0000
   1188 C376        10.2993    23.4822     4.6457 C         1 MOL       0.0000
   1189 C377        18.9321    17.8214     5.7733 C         1 MOL       0.0000
   1190 C378         4.7351    17.1722     7.4553 C         1 MOL       0.0000
   1191 C379        14.2450    10.7245     7.5875 C         1 MOL       0.0000
   1192 C380         9.4095    24.1290     5.6455 C         1 MOL       0.0000
   1193 C381        18.6833    17.8963     7.1797 C         1 MOL       0.0000
   1194 C382         4.9515    17.0522     6.0673 C         1 MOL       0.0000
   1195 C383        15.3744     9.9642     8.0406 C         1 MOL       0.0000
   1196 C384         8.3148    24.9020     5.2006 C         1 MOL       0.0000
   1197 C385         9.6640    23.9582     7.0004 C         1 MOL       0.0000
   1198 C386        13.9972    10.8566     6.2036 C         1 MOL       0.0000
   1199 C387        20.0658    17.1224     5.2976 C         1 MOL       0.0000
   1200 C388         3.6349    17.8646     7.9540 C         1 MOL       0.0000
   1201 C389        18.2478    15.3400     0.0912 C         1 MOL       0.0000
   1202 C390        11.7781    27.1316     0.1162 C         1 MOL       0.0000
   1203 C391        16.0973    14.0371    13.0602 C         1 MOL       0.0000
   1204 C392         2.7390    15.5795    13.0408 C         1 MOL       0.0000
   1205 C393        12.9822    19.1685     5.6510 C         1 MOL       0.0000
   1206 C394         8.2261    12.0742     7.5691 C         1 MOL       0.0000
   1207 C395        13.4770     9.7288    13.1630 C         1 MOL       0.0000
   1208 C396        11.6854    25.6981     0.0787 C         1 MOL       0.0000
   1209 C397        14.7995    13.4203    13.1070 C         1 MOL       0.0000
   1210 C398         4.1413    15.9939    13.0653 C         1 MOL       0.0000
   1211 C399        18.2872    14.6709     1.3209 C         1 MOL       0.0000
   1212 C400         7.1404    20.7713    11.9738 C         1 MOL       0.0000
   1213 C401         5.3876    21.9349     1.1091 C         1 MOL       0.0000
   1214 C402         2.1062    15.3498    11.8123 C         1 MOL       0.0000
   1215 C403        16.7919    14.3054    11.8268 C         1 MOL       0.0000
   1216 C404         6.6768    22.4151     1.1583 C         1 MOL       0.0000
   1217 C405        13.6297     7.5335    11.9759 C         1 MOL       0.0000
   1218 C406        18.3089    13.2698     1.4025 C         1 MOL       0.0000
   1219 N61         18.3639    12.6709     2.6406 N         1 MOL       0.0000
   1220 N62         16.2129    14.1226    10.5878 N         1 MOL       0.0000
   1221 N63         17.6025    18.5426     7.7110 N         1 MOL       0.0000
   1222 N64         15.7054     9.8060     9.3580 N         1 MOL       0.0000
   1223 O241        16.8598    18.8308     5.1439 O         1 MOL       0.0000
   1224 O242         6.4360    15.5963     8.0341 O         1 MOL       0.0000
   1225 O243        13.6862    11.4633     9.7558 O         1 MOL       0.0000
   1226 O244        10.2335    23.9119     3.4461 O         1 MOL       0.0000
   1227 O245        11.0698    22.5250     5.0322 O         1 MOL       0.0000
   1228 O246        12.1343    11.7073     8.1292 O         1 MOL       0.0000
   1229 O247        18.4480    18.5065     3.5664 O         1 MOL       0.0000
   1230 O248         5.6250    16.9834     9.6321 O         1 MOL       0.0000
   1231 O249        15.7754    18.2516     2.5674 O         1 MOL       0.0000
   1232 O250         8.1292    16.1102    10.1324 O         1 MOL       0.0000
   1233 O251        16.7142    20.5389     3.0173 O         1 MOL       0.0000
   1234 O252         6.3770    14.3855    10.6251 O         1 MOL       0.0000
   1235 O253        10.9835    11.1776    10.7198 O         1 MOL       0.0000
   1236 O254        12.7520    23.0730     2.9479 O         1 MOL       0.0000
   1237 O255        11.9375    13.4391    10.2557 O         1 MOL       0.0000
   1238 O256        11.0458    21.3159     2.4305 O         1 MOL       0.0000
   1239 O257        14.2033    18.9886     5.2967 O         1 MOL       0.0000
   1240 O258         7.5684    13.1091     7.9473 O         1 MOL       0.0000
   1241 O259        13.3548    10.3234    12.0219 O         1 MOL       0.0000
   1242 O260        11.6023    24.9966     1.1739 O         1 MOL       0.0000
   1243 O261        14.1569    13.1115    12.0168 O         1 MOL       0.0000
   1244 O262         9.3663    23.1609     1.1138 O         1 MOL       0.0000
   1245 O263         9.3879    11.7796     8.0269 O         1 MOL       0.0000
   1246 O264        12.2403    20.0894     5.1576 O         1 MOL       0.0000
   1247 O265        18.8951    20.1861     1.1600 O         1 MOL       0.0000
   1248 O266         4.7408    16.2257    11.9478 O         1 MOL       0.0000
   1249 O267        18.0995    17.4318     1.1894 O         1 MOL       0.0000
   1250 O268         7.0090    18.0080    12.0291 O         1 MOL       0.0000
   1251 O269        13.9672    20.6431     3.0684 O         1 MOL       0.0000
   1252 O270         9.2653    13.6393    10.0495 O         1 MOL       0.0000
   1253 O271        16.4213    19.4179     0.1356 O         1 MOL       0.0000
   1254 O272         7.2187    15.4540    13.0639 O         1 MOL       0.0000
   1255 H361        13.2751    15.5746     8.6055 H         1 MOL       0.0000
   1256 H362         2.8813    24.7080     6.0920 H         1 MOL       0.0000
   1257 H363        13.9095    24.1405     5.8322 H         1 MOL       0.0000
   1258 H364        14.2039    17.0652     6.8099 H         1 MOL       0.0000
   1259 H365         9.7223    17.9996     8.7694 H         1 MOL       0.0000
   1260 H366        21.6007    11.3486     7.1450 H         1 MOL       0.0000
   1261 H367        11.0080    15.9992     9.4967 H         1 MOL       0.0000
   1262 H368        10.6562    19.4815     6.9722 H         1 MOL       0.0000
   1263 H369        15.2406    22.3670     4.7159 H         1 MOL       0.0000
   1264 H370        17.7173    22.3731     4.8464 H         1 MOL       0.0000
   1265 C407        12.4524    18.3200     6.7441 C         1 MOL       0.0000
   1266 C408        11.4233    16.6705     8.7454 C         1 MOL       0.0000
   1267 C409        15.7499    23.1476     5.2802 C         1 MOL       0.0000
   1268 C410         7.5624    11.0929     6.6840 C         1 MOL       0.0000
   1269 C411        11.2003    18.6065     7.3157 C         1 MOL       0.0000
   1270 C412        12.7012    16.4206     8.2310 C         1 MOL       0.0000
   1271 C413        14.9963    24.1523     5.8992 C         1 MOL       0.0000
   1272 C414         1.7971    24.6953     6.0025 C         1 MOL       0.0000
   1273 C415        17.1474    23.1493     5.3547 C         1 MOL       0.0000
   1274 C416        22.1609    10.5539     6.6589 C         1 MOL       0.0000
   1275 C417        13.2169    17.2443     7.2312 C         1 MOL       0.0000
   1276 C418        10.6850    17.7802     8.3146 C         1 MOL       0.0000
   1277 N65         14.8218    24.6605     1.3337 N         1 MOL       0.0000
   1278 N66         11.4266    16.4555    13.0432 N         1 MOL       0.0000
   1279 C419        14.5853    25.1625     0.0690 C         1 MOL       0.0000
   1280 C420        10.6921    17.3587    12.2924 C         1 MOL       0.0000
   1281 C421        13.6708    16.5669    12.0338 C         1 MOL       0.0000
   1282 C422        14.4547    25.3292     2.5942 C         1 MOL       0.0000
   1283 C423        15.7421    23.6871     1.2281 C         1 MOL       0.0000
   1284 C424        12.5581    15.6554    12.5509 C         1 MOL       0.0000
   1285 H371         9.3761    18.9935    12.9790 H         1 MOL       0.0000
   1286 H372        10.8134    17.4465    11.2281 H         1 MOL       0.0000
   1287 H373        13.3076    17.1841    11.2034 H         1 MOL       0.0000
   1288 H374        14.4021    26.4020     2.4100 H         1 MOL       0.0000
   1289 H375        14.0472    17.2251    12.8284 H         1 MOL       0.0000
   1290 H376        13.5039    24.9374     2.9393 H         1 MOL       0.0000
   1291 H377        14.4880    15.9509    11.6445 H         1 MOL       0.0000
   1292 H378        12.1853    14.9969    11.7644 H         1 MOL       0.0000
   1293 H379        15.2225    25.1362     3.3448 H         1 MOL       0.0000
   1294 H380        16.1873    23.1578     2.0691 H         1 MOL       0.0000
   1295 H381        17.5012    22.1038     0.3046 H         1 MOL       0.0000
   1296 N67         18.3074     6.7334    12.8537 N         1 MOL       0.0000
   1297 C425        10.5444    14.6137     1.1861 C         1 MOL       0.0000
   1298 C426        19.2297     9.0125     9.5510 C         1 MOL       0.0000
   1299 O273         7.7032    14.5647     2.8501 O         1 MOL       0.0000
   1300 O274         3.2361    26.5698     1.3652 O         1 MOL       0.0000
   1301 O275        10.7490    20.5254    10.4307 O         1 MOL       0.0000
   1302 O276        12.7073    20.6574     8.8079 O         1 MOL       0.0000
   1303 F73         10.2112    15.3876     2.2954 F         1 MOL       0.0000
   1304 F74         19.0384    11.1120    11.6820 F         1 MOL       0.0000
   1305 F75         11.6726    15.2838     0.7174 F         1 MOL       0.0000
   1306 F76          9.1408    14.3017     4.5287 F         1 MOL       0.0000
   1307 F77         18.6864    10.2143     9.4729 F         1 MOL       0.0000
   1308 F78         12.2138    22.9873     8.3309 F         1 MOL       0.0000
   1309 S25         23.7995    13.2272     0.8371 S         1 MOL       0.0000
   1310 S26         12.1485    20.7782    10.1545 S         1 MOL       0.0000
   1311 N68         13.0477    15.6387     3.6671 N         1 MOL       0.0000
   1312 N69         11.2084    16.4123     4.5868 N         1 MOL       0.0000
   1313 C427        14.2274    15.5568     2.7685 C         1 MOL       0.0000
   1314 C428        12.1146    16.6081     3.6150 C         1 MOL       0.0000
   1315 C429        12.7130    14.7809     4.7098 C         1 MOL       0.0000
   1316 C430        14.4204    14.1815     2.1402 C         1 MOL       0.0000
   1317 C431        11.5704    15.2600     5.2713 C         1 MOL       0.0000
   1318 C432         9.9291    17.1186     4.7083 C         1 MOL       0.0000
   1319 H382        15.0979    15.8625     3.3512 H         1 MOL       0.0000
   1320 H383        14.0642    16.3109     1.9891 H         1 MOL       0.0000
   1321 H384        12.0552    17.3903     2.8662 H         1 MOL       0.0000
   1322 H385        15.4210    14.1494     1.6960 H         1 MOL       0.0000
   1323 H386        13.2970    13.9061     4.9306 H         1 MOL       0.0000
   1324 H387         9.8172    17.4340     5.7509 H         1 MOL       0.0000
   1325 H388         9.9581    18.0115     4.0502 H         1 MOL       0.0000
   1326 H389        14.3525    13.3577     2.8625 H         1 MOL       0.0000
   1327 H390        10.9557    14.8568     6.0587 H         1 MOL       0.0000
   1328 H391        13.6847    13.9564     1.3495 H         1 MOL       0.0000
   1329 H392         9.1212    16.4374     4.4372 H         1 MOL       0.0000
   1330 N70          9.4984    14.5816     0.2255 N         1 MOL       0.0000
   1331 C433         7.9502    13.9026     3.9078 C         1 MOL       0.0000
   1332 C434        18.8912     8.1414    10.7678 C         1 MOL       0.0000
   1333 O277         4.7621    10.0191    12.7266 O         1 MOL       0.0000
   1334 O278        11.3183    12.6405     3.1512 O         1 MOL       0.0000
   1335 O279         5.7158     8.3102    11.0904 O         1 MOL       0.0000
   1336 O280         5.5653    27.1290     0.7305 O         1 MOL       0.0000
   1337 F79          6.9515    14.1492     4.9201 F         1 MOL       0.0000
   1338 F80         17.6955     8.5235    11.2016 F         1 MOL       0.0000
   1339 F81         16.3653    26.4777     1.4754 F         1 MOL       0.0000
   1340 F82          8.0782    12.5522     3.8155 F         1 MOL       0.0000
   1341 F83         20.5796     9.0581     9.3700 F         1 MOL       0.0000
   1342 F84         13.1519    19.8011    11.0614 F         1 MOL       0.0000
   1343 S27          4.7612     8.7186    12.0979 S         1 MOL       0.0000
   1344 S28          4.4495    27.3206     1.6622 S         1 MOL       0.0000
   1345 Ti57         1.9926     9.2198    24.3744 Ti        1 MOL       0.0000
   1346 Ti58        12.8230    12.1010    15.0096 Ti        1 MOL       0.0000
   1347 Ti59         6.0892     5.2836    22.5544 Ti        1 MOL       0.0000
   1348 Ti60         7.6004    14.4457    16.7814 Ti        1 MOL       0.0000
   1349 Ti61         6.6019    16.1240    14.8770 Ti        1 MOL       0.0000
   1350 Ti62         7.9775     5.0292    24.5078 Ti        1 MOL       0.0000
   1351 Ti63         2.9418     7.4839    22.4829 Ti        1 MOL       0.0000
   1352 Ti64        10.8352    12.4035    16.8571 Ti        1 MOL       0.0000
   1353 H393         2.4944    13.1168    24.1549 H         1 MOL       0.0000
   1354 H394        13.6318     8.1949    15.3303 H         1 MOL       0.0000
   1355 H395        -1.9673     8.4631    23.9920 H         1 MOL       0.0000
   1356 H396        16.2052    14.1053    15.2102 H         1 MOL       0.0000
   1357 H397         8.9531     0.9947    24.1219 H         1 MOL       0.0000
   1358 H398         2.5433    15.5341    15.1991 H         1 MOL       0.0000
   1359 H399         2.4613     7.4212    26.0989 H         1 MOL       0.0000
   1360 H400        10.9475    11.8583    13.3096 H         1 MOL       0.0000
   1361 H401         8.4874     4.3621    18.9967 H         1 MOL       0.0000
   1362 H402         5.8770    16.2827    20.4003 H         1 MOL       0.0000
   1363 H403        -1.1309    10.8725    22.1270 H         1 MOL       0.0000
   1364 H404        15.5778    10.0166    17.3156 H         1 MOL       0.0000
   1365 H405         1.1702     9.4251    18.7932 H         1 MOL       0.0000
   1366 H406         3.5018    17.9519    17.2302 H         1 MOL       0.0000
   1367 H407         6.9941    19.2268    15.7325 H         1 MOL       0.0000
   1368 H408        13.4740     6.1761    16.5328 H         1 MOL       0.0000
   1369 H409         9.6931    14.1258    15.4428 H         1 MOL       0.0000
   1370 H410         5.0085     7.1320    23.8480 H         1 MOL       0.0000
   1371 H411        12.2122     6.9641    22.8975 H         1 MOL       0.0000
   1372 H412        10.7311     6.4950    23.6448 H         1 MOL       0.0000
   1373 H413        12.7863    11.3977    21.7985 H         1 MOL       0.0000
   1374 H414        12.2166    11.7563    20.1800 H         1 MOL       0.0000
   1375 H415        11.7234     2.0092    22.7074 H         1 MOL       0.0000
   1376 H416        10.4442     3.1098    23.1648 H         1 MOL       0.0000
   1377 C435        13.4011    11.3597    17.8731 C         1 MOL       0.0000
   1378 C436         1.0320     9.4811    21.5274 C         1 MOL       0.0000
   1379 C437         8.6698     4.2729    21.6297 C         1 MOL       0.0000
   1380 C438         5.6643    16.4162    17.7407 C         1 MOL       0.0000
   1381 C439        14.2971    10.7554    18.8683 C         1 MOL       0.0000
   1382 C440         0.1001    10.1062    20.5503 C         1 MOL       0.0000
   1383 C441         9.6100     3.6585    20.6825 C         1 MOL       0.0000
   1384 C442         4.7745    17.0630    18.7405 C         1 MOL       0.0000
   1385 C443        14.0483    10.8303    20.2747 C         1 MOL       0.0000
   1386 C444         0.3165     9.9862    19.1623 C         1 MOL       0.0000
   1387 C445        10.7394     2.8982    21.1356 C         1 MOL       0.0000
   1388 C446         3.6798    17.8360    18.2956 C         1 MOL       0.0000
   1389 C447         5.0290    16.8923    20.0954 C         1 MOL       0.0000
   1390 C448         9.3622     3.7906    19.2986 C         1 MOL       0.0000
   1391 C449        15.4308    10.0564    18.3926 C         1 MOL       0.0000
   1392 C450        -1.0001    10.7986    21.0490 C         1 MOL       0.0000
   1393 C451        13.6128     8.2740    13.1862 C         1 MOL       0.0000
   1394 C452         7.1431    20.0656    13.2112 C         1 MOL       0.0000
   1395 C453        11.4623     6.9711    26.1552 C         1 MOL       0.0000
   1396 C454        -1.8960     8.5135    26.1358 C         1 MOL       0.0000
   1397 C455         8.3472    12.1025    18.7460 C         1 MOL       0.0000
   1398 C456         3.5911     5.0082    20.6641 C         1 MOL       0.0000
   1399 C457         8.8420     2.6628    26.2580 C         1 MOL       0.0000
   1400 C458         7.0504    18.6321    13.1737 C         1 MOL       0.0000
   1401 C459        10.1645     6.3543    26.2020 C         1 MOL       0.0000
   1402 C460        -0.4937     8.9279    26.1603 C         1 MOL       0.0000
   1403 C461        13.6522     7.6049    14.4159 C         1 MOL       0.0000
   1404 C462         2.5054    13.7053    25.0688 C         1 MOL       0.0000
   1405 C463         0.7526    14.8689    14.2041 C         1 MOL       0.0000
   1406 C464        -2.5288     8.2838    24.9073 C         1 MOL       0.0000
   1407 C465        12.1569     7.2394    24.9218 C         1 MOL       0.0000
   1408 C466         2.0418    15.3491    14.2533 C         1 MOL       0.0000
   1409 C467         8.9947     0.4675    25.0709 C         1 MOL       0.0000
   1410 C468        13.6739     6.2038    14.4975 C         1 MOL       0.0000
   1411 N71         13.7289     5.6049    15.7356 N         1 MOL       0.0000
   1412 N72         11.5779     7.0566    23.6828 N         1 MOL       0.0000
   1413 N73         12.9675    11.4766    20.8060 N         1 MOL       0.0000
   1414 N74         11.0704     2.7400    22.4530 N         1 MOL       0.0000
   1415 O281        12.2248    11.7648    18.2389 O         1 MOL       0.0000
   1416 O282         1.8010     8.5303    21.1291 O         1 MOL       0.0000
   1417 O283         9.0512     4.3973    22.8508 O         1 MOL       0.0000
   1418 O284         5.5985    16.8459    16.5412 O         1 MOL       0.0000
   1419 O285         6.4348    15.4590    18.1272 O         1 MOL       0.0000
   1420 O286         7.4993     4.6413    21.2242 O         1 MOL       0.0000
   1421 O287        13.8130    11.4405    16.6614 O         1 MOL       0.0000
   1422 O288         0.9900     9.9174    22.7271 O         1 MOL       0.0000
   1423 O289        11.1404    11.1856    15.6624 O         1 MOL       0.0000
   1424 O290         3.4942     9.0442    23.2274 O         1 MOL       0.0000
   1425 O291        12.0792    13.4729    16.1123 O         1 MOL       0.0000
   1426 O292         1.7420     7.3195    23.7201 O         1 MOL       0.0000
   1427 O293         6.3486     4.1116    23.8148 O         1 MOL       0.0000
   1428 O294         8.1170    16.0070    16.0429 O         1 MOL       0.0000
   1429 O295         7.3025     6.3731    23.3507 O         1 MOL       0.0000
   1430 O296         6.4108    14.2499    15.5255 O         1 MOL       0.0000
   1431 O297         9.5683    11.9226    18.3917 O         1 MOL       0.0000
   1432 O298         2.9334     6.0431    21.0423 O         1 MOL       0.0000
   1433 O299         8.7198     3.2574    25.1169 O         1 MOL       0.0000
   1434 O300         6.9673    17.9306    14.2689 O         1 MOL       0.0000
   1435 O301         9.5219     6.0455    25.1118 O         1 MOL       0.0000
   1436 O302         4.7313    16.0949    14.2088 O         1 MOL       0.0000
   1437 O303         4.7529     4.7136    21.1219 O         1 MOL       0.0000
   1438 O304         7.6053    13.0234    18.2526 O         1 MOL       0.0000
   1439 O305        14.2601    13.1201    14.2550 O         1 MOL       0.0000
   1440 O306         0.1058     9.1597    25.0428 O         1 MOL       0.0000
   1441 O307        13.4645    10.3658    14.2844 O         1 MOL       0.0000
   1442 O308         2.3740    10.9420    25.1241 O         1 MOL       0.0000
   1443 O309         9.3322    13.5771    16.1634 O         1 MOL       0.0000
   1444 O310         4.6303     6.5733    23.1445 O         1 MOL       0.0000
   1445 O311        11.7863    12.3519    13.2306 O         1 MOL       0.0000
   1446 O312         2.5837     8.3880    26.1589 O         1 MOL       0.0000
   1447 H417         8.6401     8.5086    21.7005 H         1 MOL       0.0000
   1448 H418        -1.7537    17.6420    19.1870 H         1 MOL       0.0000
   1449 H419         9.2745    17.0745    18.9272 H         1 MOL       0.0000
   1450 H420         9.5689     9.9992    19.9049 H         1 MOL       0.0000
   1451 H421         5.0873    10.9336    21.8644 H         1 MOL       0.0000
   1452 H422        16.9657     4.2826    20.2400 H         1 MOL       0.0000
   1453 H423         6.3730     8.9332    22.5917 H         1 MOL       0.0000
   1454 H424         6.0212    12.4155    20.0672 H         1 MOL       0.0000
   1455 H425        10.6056    15.3010    17.8109 H         1 MOL       0.0000
   1456 H426        13.0823    15.3071    17.9414 H         1 MOL       0.0000
   1457 C469         7.8174    11.2540    19.8391 C         1 MOL       0.0000
   1458 C470         6.7883     9.6045    21.8404 C         1 MOL       0.0000
   1459 C471        11.1149    16.0816    18.3752 C         1 MOL       0.0000
   1460 C472         2.9274     4.0269    19.7790 C         1 MOL       0.0000
   1461 C473         6.5653    11.5405    20.4107 C         1 MOL       0.0000
   1462 C474         8.0662     9.3546    21.3260 C         1 MOL       0.0000
   1463 C475        10.3613    17.0863    18.9942 C         1 MOL       0.0000
   1464 C476        -2.8379    17.6293    19.0975 C         1 MOL       0.0000
   1465 C477        12.5124    16.0833    18.4497 C         1 MOL       0.0000
   1466 C478        17.5259     3.4879    19.7539 C         1 MOL       0.0000
   1467 C479         8.5819    10.1783    20.3262 C         1 MOL       0.0000
   1468 C480         6.0500    10.7142    21.4096 C         1 MOL       0.0000
   1469 N75         10.1868    17.5945    14.4287 N         1 MOL       0.0000
   1470 N76          6.7916     9.3895    26.1382 N         1 MOL       0.0000
   1471 C481         9.9503    18.0965    13.1640 C         1 MOL       0.0000
   1472 C482         6.0571    10.2927    25.3874 C         1 MOL       0.0000
   1473 C483         9.0358     9.5009    25.1288 C         1 MOL       0.0000
   1474 C484         9.8197    18.2632    15.6892 C         1 MOL       0.0000
   1475 C485        11.1071    16.6211    14.3231 C         1 MOL       0.0000
   1476 C486         7.9231     8.5894    25.6459 C         1 MOL       0.0000
   1477 H427         4.7411    11.9275    26.0740 H         1 MOL       0.0000
   1478 H428         6.1784    10.3805    24.3231 H         1 MOL       0.0000
   1479 H429         8.6726    10.1181    24.2984 H         1 MOL       0.0000
   1480 H430         9.7671    19.3360    15.5050 H         1 MOL       0.0000
   1481 H431         9.4122    10.1591    25.9234 H         1 MOL       0.0000
   1482 H432         8.8689    17.8714    16.0343 H         1 MOL       0.0000
   1483 H433         9.8530     8.8849    24.7395 H         1 MOL       0.0000
   1484 H434         7.5503     7.9309    24.8594 H         1 MOL       0.0000
   1485 H435        10.5875    18.0702    16.4398 H         1 MOL       0.0000
   1486 H436        11.5523    16.0918    15.1641 H         1 MOL       0.0000
   1487 H437        12.8662    15.0378    13.3996 H         1 MOL       0.0000
   1488 N77         13.6724    -0.3326    25.9487 N         1 MOL       0.0000
   1489 C487         5.9094     7.5477    14.2811 C         1 MOL       0.0000
   1490 C488        14.5947     1.9465    22.6460 C         1 MOL       0.0000
   1491 O313         3.0682     7.4987    15.9451 O         1 MOL       0.0000
   1492 O314        -1.3989    19.5038    14.4602 O         1 MOL       0.0000
   1493 O315         6.1140    13.4594    23.5257 O         1 MOL       0.0000
   1494 O316         8.0723    13.5914    21.9029 O         1 MOL       0.0000
   1495 F85          5.5762     8.3216    15.3904 F         1 MOL       0.0000
   1496 F86         14.4034     4.0460    24.7770 F         1 MOL       0.0000
   1497 F87          7.0376     8.2178    13.8124 F         1 MOL       0.0000
   1498 F88          4.5058     7.2357    17.6237 F         1 MOL       0.0000
   1499 F89         14.0514     3.1483    22.5679 F         1 MOL       0.0000
   1500 F90          7.5788    15.9213    21.4259 F         1 MOL       0.0000
   1501 S29         19.1645     6.1612    13.9321 S         1 MOL       0.0000
   1502 S30          7.5135    13.7122    23.2495 S         1 MOL       0.0000
   1503 N78          8.4127     8.5727    16.7621 N         1 MOL       0.0000
   1504 N79          6.5734     9.3463    17.6818 N         1 MOL       0.0000
   1505 C489         9.5924     8.4908    15.8635 C         1 MOL       0.0000
   1506 C490         7.4796     9.5421    16.7100 C         1 MOL       0.0000
   1507 C491         8.0780     7.7149    17.8048 C         1 MOL       0.0000
   1508 C492         9.7854     7.1155    15.2352 C         1 MOL       0.0000
   1509 C493         6.9354     8.1940    18.3663 C         1 MOL       0.0000
   1510 C494         5.2941    10.0526    17.8033 C         1 MOL       0.0000
   1511 H438        10.4629     8.7965    16.4462 H         1 MOL       0.0000
   1512 H439         9.4292     9.2449    15.0841 H         1 MOL       0.0000
   1513 H440         7.4202    10.3243    15.9612 H         1 MOL       0.0000
   1514 H441        10.7860     7.0834    14.7910 H         1 MOL       0.0000
   1515 H442         8.6620     6.8401    18.0256 H         1 MOL       0.0000
   1516 H443         5.1822    10.3680    18.8459 H         1 MOL       0.0000
   1517 H444         5.3231    10.9455    17.1452 H         1 MOL       0.0000
   1518 H445         9.7175     6.2917    15.9575 H         1 MOL       0.0000
   1519 H446         6.3207     7.7908    19.1537 H         1 MOL       0.0000
   1520 H447         9.0497     6.8904    14.4445 H         1 MOL       0.0000
   1521 H448         4.4862     9.3714    17.5322 H         1 MOL       0.0000
   1522 N80          4.8634     7.5156    13.3205 N         1 MOL       0.0000
   1523 C495         3.3152     6.8366    17.0028 C         1 MOL       0.0000
   1524 C496        14.2562     1.0754    23.8628 C         1 MOL       0.0000
   1525 O317         0.1271     2.9531    25.8216 O         1 MOL       0.0000
   1526 O318         6.6833     5.5745    16.2462 O         1 MOL       0.0000
   1527 O319         1.0808     1.2442    24.1854 O         1 MOL       0.0000
   1528 O320         0.9303    20.0630    13.8255 O         1 MOL       0.0000
   1529 F91          2.3165     7.0832    18.0151 F         1 MOL       0.0000
   1530 F92         13.0605     1.4575    24.2966 F         1 MOL       0.0000
   1531 F93         11.7303    19.4117    14.5704 F         1 MOL       0.0000
   1532 F94          3.4432     5.4862    16.9105 F         1 MOL       0.0000
   1533 F95         15.9446     1.9921    22.4650 F         1 MOL       0.0000
   1534 F96          8.5169    12.7351    24.1564 F         1 MOL       0.0000
   1535 S31          0.1262     1.6526    25.1929 S         1 MOL       0.0000
   1536 S32         -0.1855    20.2546    14.7572 S         1 MOL       0.0000
@<TRIPOS>BOND
     1     1    78 1
     2     1    96 1
     3     7    88 1
     4     7   100 1
     5     1     7 1
     6     1    80 1
     7     1    82 1
     8     7    72 1
     9     7    80 1
    10     7    82 1
    11     1   102 1
    12     1   197 1
    13     1    98 1
    14     2     8 1
    15     2    79 1
    16     2    81 1
    17     2   101 1
    18     2    97 1
    19     2    77 1
    20     2    95 1
    21     3    93 1
    22     3   100 1
    23     3    76 1
    24     3    83 1
    25     3    85 1
    26     3     6 1
    27     4    86 1
    28     4    94 1
    29     4     5 1
    30     4    84 1
    31     4    75 1
    32     4    99 1
    33     5    92 1
    34     5    86 1
    35     5    74 1
    36     5    84 1
    37     5    90 1
    38     6    83 1
    39     6    85 1
    40     6   194 1
    41     6   293 1
    42   194   293 1
    43   208   293 1
    44   194   200 1
    45   194   271 1
    46   194   273 1
    47     6    73 1
    48     6    89 1
    49     6    91 1
    50   194   287 1
    51   194   289 1
    52   194   269 1
    53     8    79 1
    54     8    81 1
    55     8    99 1
    56    16   101 1
    57    25    99 1
    58     8    71 1
    59     8    87 1
    60     9    60 1
    61    59    66 1
    62    10    59 1
    63    49    59 1
    64    34    38 1
    65    34    78 1
    66    11    62 1
    67    34    72 1
    68    12   829 1
    69   829   832 1
    70    31    70 1
    71    32    70 1
    72    43    70 1
    73    13    65 1
    74    14    64 1
    75   197   284 1
    76   197   266 1
    77    15   102 1
    78   102   197 1
    79   197   276 1
    80   197   278 1
    81   197   282 1
    82    17    46 1
    83    36    40 1
    84    45   427 1
    85    36    74 1
    86    18    45 1
    87    36    75 1
    88    19    48 1
    89    20    47 1
    90    47   810 1
    91    21    42 1
    92   154   179 1
    93    22    44 1
    94    40    44 1
    95    44   430 1
    96    40    45 1
    97    56    90 1
    98    23   451 1
    99    50    56 1
   100    50   450 1
   101   408   451 1
   102   450   451 1
   103    24    67 1
   104    66    67 1
   105    26   100 1
   106   118   123 1
   107   109   114 1
   108   114   118 1
   109   114   124 1
   110    35    76 1
   111    39    43 1
   112    39    46 1
   113    35    39 1
   114    35    73 1
   115    27    68 1
   116    28    68 1
   117    29    69 1
   118    30    69 1
   119    33    71 1
   120    37    47 1
   121    41   816 1
   122    33    77 1
   123    33    37 1
   124    37    41 1
   125    41    69 1
   126    38    42 1
   127    38    48 1
   128    51    57 1
   129    57    91 1
   130    57   287 1
   131    51    63 1
   132    51  1021 1
   133    52    58 1
   134    52    62 1
   135    52   256 1
   136    58    96 1
   137    58   284 1
   138   113   123 1
   139   117   124 1
   140    53    94 1
   141    53   113 1
   142   110   117 1
   143   113   117 1
   144    53    87 1
   145    54   116 1
   146    54    88 1
   147    54    93 1
   148   251   258 1
   149    55   241 1
   150    65   241 1
   151   241   251 1
   152    55    89 1
   153    55   289 1
   154    60   242 1
   155    98   248 1
   156   242   248 1
   157   242   642 1
   158   248   282 1
   159   642   643 1
   160    60   449 1
   161   133   319 1
   162    61    64 1
   163   129   132 1
   164    63    68 1
   165   129   135 1
   166   129   137 1
   167   129   139 1
   168    63   830 1
   169  1021  1024 1
   170   103   118 1
   171   104   120 1
   172   105   119 1
   173   111   115 1
   174   115   119 1
   175   119   506 1
   176   115   121 1
   177   506  1268 1
   178   106   123 1
   179   107   124 1
   180   149   158 1
   181   150   158 1
   182   158   190 1
   183   158   564 1
   184   108   122 1
   185   122   884 1
   186   947   953 1
   187   947   956 1
   188   112   121 1
   189   121   888 1
   190   872   888 1
   191   888  1268 1
   192   179   188 1
   193   179   185 1
   194   120   500 1
   195   166   177 1
   196   160   162 1
   197   160   165 1
   198   160   166 1
   199   163   165 1
   200   165   175 1
   201   166   172 1
   202   166   173 1
   203   163   171 1
   204   125   127 1
   205   125   131 1
   206   131   142 1
   207   125   130 1
   208   128   134 1
   209   126   128 1
   210   126   132 1
   211   126   323 1
   212   132   140 1
   213   132   335 1
   214   317   323 1
   215   323   334 1
   216   128   319 1
   217   317   319 1
   218   317   322 1
   219   130   138 1
   220   130   141 1
   221   130   136 1
   222   187   541 1
   223   144   349 1
   224   145   151 1
   225   145   153 1
   226   145   178 1
   227   159   162 1
   228   162   169 1
   229   159   163 1
   230   159   161 1
   231   146   155 1
   232   146   180 1
   233   146   189 1
   234   180   186 1
   235   147   179 1
   236   148   192 1
   237   184   192 1
   238   192   566 1
   239   192   529 1
   240   415   454 1
   241   156   530 1
   242   530   539 1
   243   530   564 1
   244   564   570 1
   245   530   573 1
   246   915   947 1
   247   157   946 1
   248   164   174 1
   249   164   176 1
   250   161   164 1
   251   161   167 1
   252   161   168 1
   253   164   170 1
   254   181   191 1
   255   191   370 1
   256   183   191 1
   257   193   270 1
   258   193   274 1
   259   193   288 1
   260   193   199 1
   261   193   272 1
   262   193   294 1
   263   207   294 1
   264   218   292 1
   265   193   290 1
   266   195   285 1
   267   195   292 1
   268   195   268 1
   269   195   198 1
   270   195   275 1
   271   195   277 1
   272   198   265 1
   273   198   275 1
   274   198   277 1
   275   198   281 1
   276   198   283 1
   277   196   286 1
   278   196   291 1
   279   196   197 1
   280   196   267 1
   281   196   276 1
   282   196   278 1
   283   199   264 1
   284   199   274 1
   285   199   280 1
   286   199   272 1
   287   199   292 1
   288   200   291 1
   289   200   263 1
   290   200   271 1
   291   200   273 1
   292   200   279 1
   293   201   252 1
   294   252   641 1
   295   202   251 1
   296   212   239 1
   297   239  1002 1
   298   203   254 1
   299   244   254 1
   300   244   250 1
   301   204  1021 1
   302   205   257 1
   303   247   281 1
   304   206   256 1
   305   228   232 1
   306   228   266 1
   307   232   237 1
   308   232   236 1
   309   228   267 1
   310   209   238 1
   311   227   268 1
   312   227   265 1
   313   227   231 1
   314   210   237 1
   315   348   722 1
   316   297   311 1
   317   211   240 1
   318   213   234 1
   319   226   230 1
   320   226   264 1
   321   230   234 1
   322   226   270 1
   323   230   240 1
   324   214   236 1
   325   236   622 1
   326   215   643 1
   327   600   643 1
   328   216   259 1
   329   217   291 1
   330   303   307 1
   331   304   313 1
   332   307   313 1
   333   307   311 1
   334   313  1080 1
   335   243   249 1
   336   219   260 1
   337   243   255 1
   338   255   260 1
   339   255  1022 1
   340   224   262 1
   341   249   283 1
   342   220   260 1
   343   221   261 1
   344   222   261 1
   345   223   262 1
   346   225   263 1
   347   225   269 1
   348   225   229 1
   349   233   261 1
   350   229   239 1
   351   233  1008 1
   352   979  1008 1
   353   229   233 1
   354   231   238 1
   355   235   262 1
   356   231   235 1
   357   237   619 1
   358   619   646 1
   359   245   286 1
   360   245   305 1
   361   245   279 1
   362   246   280 1
   363   246   285 1
   364   246   308 1
   365   250   288 1
   366   253   256 1
   367   258   259 1
   368   295   310 1
   369   306   310 1
   370   310   315 1
   371   306   316 1
   372   296   312 1
   373   298   315 1
   374   299   316 1
   375   300   314 1
   376   301   306 1
   377   318   320 1
   378   318   324 1
   379   321   324 1
   380   321   327 1
   381   321   329 1
   382   324   332 1
   383   320   326 1
   384   321   331 1
   385   305   315 1
   386   302   309 1
   387   305   309 1
   388   309   316 1
   389   342   350 1
   390   311   698 1
   391  1080  1460 1
   392   312   692 1
   393   314  1076 1
   394  1014  1048 1
   395  1014  1076 1
   396  1014  1053 1
   397   379   733 1
   398   528   733 1
   399   733  1522 1
   400   322   330 1
   401   322   328 1
   402   322   333 1
   403  1491  1523 1
   404  1523  1529 1
   405  1523  1532 1
   406   341   350 1
   407   350   382 1
   408   350   756 1
   409   372   378 1
   410   338   381 1
   411   338   372 1
   412  1141  1151 1
   413   338   347 1
   414   337   370 1
   415   337   343 1
   416   337   345 1
   417   371   380 1
   418   339   371 1
   419   346   371 1
   420   358   369 1
   421   371   377 1
   422   358   365 1
   423   358   364 1
   424   340   384 1
   425   376   384 1
   426   384   758 1
   427   384   721 1
   428   349  1138 1
   429   352   358 1
   430   351   354 1
   431   351   355 1
   432   352   354 1
   433   352   357 1
   434   355   357 1
   435   355   363 1
   436   357   367 1
   437   354   361 1
   438   351   353 1
   439   356   368 1
   440   353   360 1
   441   356   366 1
   442   356   362 1
   443   353   356 1
   444   353   359 1
   445   373   383 1
   446   375   383 1
   447   418   422 1
   448   385   480 1
   449   385   466 1
   450   391   466 1
   451   391   472 1
   452   385   391 1
   453   385   462 1
   454   385   464 1
   455   391   456 1
   456   391   464 1
   457   418   456 1
   458   418   462 1
   459   385   482 1
   460   385   486 1
   461   385   581 1
   462   391   484 1
   463   386   392 1
   464   386   463 1
   465   386   481 1
   466   386   461 1
   467   386   465 1
   468   386   479 1
   469   386   485 1
   470   387   460 1
   471   387   467 1
   472   387   469 1
   473   387   477 1
   474   387   484 1
   475   410   484 1
   476   387   390 1
   477   388   470 1
   478   388   478 1
   479   388   389 1
   480   388   459 1
   481   388   483 1
   482   388   468 1
   483   389   470 1
   484   389   458 1
   485   389   474 1
   486   389   476 1
   487   389   468 1
   488   390   467 1
   489   390   469 1
   490   390   677 1
   491   578   677 1
   492   578   584 1
   493   578   655 1
   494   578   657 1
   495   390   473 1
   496   578   673 1
   497   390   457 1
   498   390   475 1
   499   390   578 1
   500   441   475 1
   501   441   671 1
   502   578   671 1
   503   578   653 1
   504   392   463 1
   505   392   483 1
   506   409   483 1
   507   392   471 1
   508   392   465 1
   509   400   485 1
   510   392   455 1
   511   393   444 1
   512   443   450 1
   513   394   443 1
   514   433   443 1
   515   403   432 1
   516   395   446 1
   517   396  1213 1
   518  1213  1216 1
   519   416   454 1
   520   427   454 1
   521   397   449 1
   522   398   448 1
   523   581   668 1
   524   581   662 1
   525   399   486 1
   526   486   581 1
   527   581   666 1
   528   581   650 1
   529   581   660 1
   530   482   632 1
   531   423   427 1
   532   401   430 1
   533   423   430 1
   534   424   428 1
   535   420   458 1
   536   402   429 1
   537   420   424 1
   538   420   459 1
   539   424   429 1
   540  1190  1200 1
   541   404   431 1
   542   431  1194 1
   543  1173  1194 1
   544  1190  1194 1
   545   405   426 1
   546   406   428 1
   547   434   440 1
   548   411   452 1
   549   419   460 1
   550   419   423 1
   551   419   457 1
   552   412   452 1
   553   413   453 1
   554   417   421 1
   555   417   461 1
   556   417   455 1
   557   414   453 1
   558   421   425 1
   559   425  1200 1
   560   425   453 1
   561   421   431 1
   562   422   432 1
   563   422   426 1
   564   435   441 1
   565   447   452 1
   566   435   447 1
   567   435  1405 1
   568   447  1214 1
   569  1405  1408 1
   570   436   442 1
   571   436   446 1
   572   436   640 1
   573   442   480 1
   574   442   668 1
   575   437   478 1
   576   497   501 1
   577   497   507 1
   578   437   471 1
   579   437   497 1
   580   563   572 1
   581   438   500 1
   582   563   569 1
   583   438   472 1
   584   438   477 1
   585   635   642 1
   586   439   473 1
   587   439   625 1
   588   439   673 1
   589   449   625 1
   590   625   635 1
   591   440   474 1
   592   632   666 1
   593   444   626 1
   594   626   632 1
   595   445   448 1
   596   509   511 1
   597   509   514 1
   598   509   515 1
   599   514   522 1
   600   514   525 1
   601   514   520 1
   602   515   526 1
   603   501   508 1
   604   494   501 1
   605   502   507 1
   606   487   502 1
   607   488   504 1
   608   489   503 1
   609   495   499 1
   610   499   503 1
   611   499   505 1
   612   547   549 1
   613   547   555 1
   614   490   507 1
   615   491   508 1
   616   493   498 1
   617   498   508 1
   618   498   502 1
   619   492   506 1
   620   496   505 1
   621   505  1272 1
   622  1256  1272 1
   623   512   518 1
   624   510   512 1
   625   510   707 1
   626   512   703 1
   627   701   703 1
   628   701   707 1
   629   707   718 1
   630   701   706 1
   631   510   516 1
   632   516   524 1
   633   513   519 1
   634   513   516 1
   635   513   521 1
   636   513   523 1
   637   516   719 1
   638   517   703 1
   639   529   535 1
   640   529   537 1
   641   529   562 1
   642   546   553 1
   643   531   563 1
   644   532   576 1
   645   533   542 1
   646   542   574 1
   647   534   542 1
   648   538   563 1
   649   541  1330 1
   650   916   960 1
   651   960  1297 1
   652  1297  1330 1
   653  1299  1331 1
   654  1297  1303 1
   655   960  1334 1
   656  1297  1305 1
   657   543   546 1
   658   545   548 1
   659   543   545 1
   660   545   551 1
   661   545   552 1
   662   543   547 1
   663   544   546 1
   664   544   549 1
   665   544   550 1
   666   549   559 1
   667   550   556 1
   668   550   557 1
   669   550   561 1
   670   548   554 1
   671   548   558 1
   672   548   560 1
   673   565   575 1
   674   575   754 1
   675   721   729 1
   676   721   754 1
   677   721   727 1
   678   567   575 1
   679   568   576 1
   680  1300  1344 1
   681  1335  1343 1
   682   577   654 1
   683   577   672 1
   684   577   583 1
   685   577   656 1
   686   577   658 1
   687   577   678 1
   688   591   678 1
   689   577   674 1
   690   579   676 1
   691   579   652 1
   692   579   669 1
   693   579   582 1
   694   579   659 1
   695   579   661 1
   696   593   622 1
   697   616   620 1
   698   580   662 1
   699   580   670 1
   700   580   581 1
   701   580   651 1
   702   580   660 1
   703   612   616 1
   704   612   650 1
   705   612   651 1
   706   616   621 1
   707   580   675 1
   708   582   659 1
   709   582   661 1
   710   582   649 1
   711   582   665 1
   712   582   667 1
   713   610   614 1
   714   610   654 1
   715   583   664 1
   716   583   676 1
   717   583   648 1
   718   610   648 1
   719   583   656 1
   720   583   658 1
   721   584   647 1
   722   584   655 1
   723   584   657 1
   724   584   663 1
   725   584   675 1
   726   601   675 1
   727   585   636 1
   728   586   635 1
   729   596   623 1
   730   623  1386 1
   731   587   638 1
   732   628   634 1
   733   628   638 1
   734   634   672 1
   735   588  1405 1
   736   607   646 1
   737   608   646 1
   738   589   641 1
   739   631   665 1
   740   590   640 1
   741   598   620 1
   742   592   677 1
   743   594   621 1
   744   595   624 1
   745   597   618 1
   746   723   755 1
   747   730   755 1
   748   602   676 1
   749   685   690 1
   750   702   704 1
   751   702   708 1
   752   704   710 1
   753   708   716 1
   754   705   708 1
   755   627   633 1
   756   603   644 1
   757   627   639 1
   758   639   644 1
   759   705   711 1
   760   705   713 1
   761   705   715 1
   762   639  1406 1
   763   633   667 1
   764   604   644 1
   765   613   623 1
   766   617  1392 1
   767   605   645 1
   768   613   617 1
   769   617   645 1
   770   606   645 1
   771   609   647 1
   772   609   653 1
   773   609   613 1
   774   611   652 1
   775   615   619 1
   776   611   615 1
   777   615   622 1
   778   611   649 1
   779   614   618 1
   780   614   624 1
   781   629   670 1
   782   629   689 1
   783   629   663 1
   784   630   664 1
   785   630   692 1
   786   630   669 1
   787   637   640 1
   788   679   694 1
   789   682   699 1
   790   680   696 1
   791   681   695 1
   792   683   700 1
   793   686   693 1
   794   689   693 1
   795   693   700 1
   796   726   734 1
   797   689   699 1
   798   684   698 1
   799   698  1460 1
   800  1351  1432 1
   801  1398  1432 1
   802  1398  1460 1
   803  1351  1426 1
   804  1351  1416 1
   805  1351  1424 1
   806  1398  1437 1
   807  1351  1444 1
   808   687   691 1
   809   691   695 1
   810   691   697 1
   811   688   697 1
   812   697  1464 1
   813   690   694 1
   814   690   700 1
   815   694   699 1
   816   706   714 1
   817   706   717 1
   818   706   712 1
   819   722   731 1
   820   722   765 1
   821   722   756 1
   822   756   762 1
   823   724   768 1
   824   760   768 1
   825   725   734 1
   826   734   766 1
   827   742   753 1
   828   735   738 1
   829   735   739 1
   830   736   738 1
   831   736   741 1
   832   736   742 1
   833   738   745 1
   834   739   741 1
   835   741   751 1
   836   742   748 1
   837   742   749 1
   838   739   747 1
   839   735   737 1
   840   740   752 1
   841   740   750 1
   842   737   744 1
   843   740   746 1
   844   737   740 1
   845   737   743 1
   846   755   764 1
   847   755   761 1
   848   757   767 1
   849   759   767 1
   850   965  1052 1
   851   769   775 1
   852   769   850 1
   853   965  1046 1
   854   769   846 1
   855   769   848 1
   856   769   864 1
   857   769   866 1
   858   769   870 1
   859   769   965 1
   860   870   965 1
   861   965  1050 1
   862   965  1034 1
   863   965  1044 1
   864   866  1016 1
   865   770   847 1
   866   770   776 1
   867   770   865 1
   868   770   845 1
   869   770   849 1
   870   770   863 1
   871   770   869 1
   872   771   844 1
   873   771   851 1
   874   771   853 1
   875   771   861 1
   876   771   868 1
   877   794   868 1
   878   771   774 1
   879   772   854 1
   880   772   773 1
   881   772   843 1
   882   772   867 1
   883   793   867 1
   884   772   862 1
   885   772   852 1
   886   784   869 1
   887   773   854 1
   888   773   842 1
   889   773   858 1
   890   773   860 1
   891   824   858 1
   892   773   852 1
   893   774   851 1
   894   774   853 1
   895   774  1061 1
   896   774   857 1
   897   774   841 1
   898   774   859 1
   899   825   859 1
   900   825  1055 1
   901   774   962 1
   902   822   884 1
   903   775   850 1
   904   775   856 1
   905   822   856 1
   906   775   840 1
   907   775   848 1
   908   775   868 1
   909   822   861 1
   910   776   847 1
   911   821   881 1
   912   776   867 1
   913   776   855 1
   914   821   855 1
   915   821   862 1
   916   776   849 1
   917   776   839 1
   918   777   828 1
   919   827   834 1
   920   778   827 1
   921   817   827 1
   922   787   816 1
   923   779   830 1
   924   807   814 1
   925   800   838 1
   926   807   811 1
   927   811   838 1
   928   781   833 1
   929   782   832 1
   930   783   870 1
   931   785   814 1
   932   808   812 1
   933   804   842 1
   934   786   813 1
   935   804   808 1
   936   804   843 1
   937   808   813 1
   938   813  1195 1
   939   788   815 1
   940   789   810 1
   941   790   812 1
   942   812  1198 1
   943   818   824 1
   944   791  1219 1
   945   818  1218 1
   946  1176  1219 1
   947  1211  1218 1
   948  1218  1219 1
   949   792   835 1
   950   834   835 1
   951   795   836 1
   952   803   844 1
   953   803   807 1
   954   803   841 1
   955   796   836 1
   956   797   837 1
   957   801   805 1
   958   801   845 1
   959   801   839 1
   960   798   837 1
   961   799   838 1
   962   914   923 1
   963   914   948 1
   964   948   954 1
   965   914   957 1
   966   806   816 1
   967   806   810 1
   968   802   806 1
   969   802   840 1
   970   802   846 1
   971   805   809 1
   972   809   837 1
   973   805   815 1
   974   819   825 1
   975   831   836 1
   976   819   831 1
   977   820   826 1
   978   820   830 1
   979   820  1024 1
   980   826  1052 1
   981   826   864 1
   982  1019  1026 1
   983   823   857 1
   984   823  1009 1
   985   823  1057 1
   986   833  1009 1
   987  1009  1019 1
   988  1016  1050 1
   989   828  1010 1
   990  1010  1016 1
   991  1010  1410 1
   992  1410  1411 1
   993   828  1217 1
   994   927   930 1
   995   929   932 1
   996   927   929 1
   997   929   935 1
   998   929   936 1
   999   927   931 1
  1000   893   895 1
  1001   893   898 1
  1002   893   899 1
  1003   898   906 1
  1004   898   909 1
  1005   898   904 1
  1006   899   910 1
  1007   886   891 1
  1008   871   886 1
  1009   873   887 1
  1010   879   883 1
  1011   883   887 1
  1012   887  1274 1
  1013   883   889 1
  1014   931   933 1
  1015   881   885 1
  1016   931   939 1
  1017   874   891 1
  1018   881   891 1
  1019   875   892 1
  1020   877   882 1
  1021   882   892 1
  1022   882   886 1
  1023   876   890 1
  1024   885   892 1
  1025   878   885 1
  1026   880   889 1
  1027   894   896 1
  1028   894  1091 1
  1029   896   902 1
  1030   896  1087 1
  1031  1085  1087 1
  1032  1085  1091 1
  1033  1085  1090 1
  1034  1091  1102 1
  1035   894   900 1
  1036   900   908 1
  1037   897   900 1
  1038   897   903 1
  1039   897   905 1
  1040   897   907 1
  1041   900  1103 1
  1042   901  1087 1
  1043  1147  1501 1
  1044  1296  1501 1
  1045   912  1117 1
  1046   913   946 1
  1047   913   919 1
  1048   913   921 1
  1049   930   937 1
  1050   917   926 1
  1051   926   958 1
  1052   926  1332 1
  1053   918   926 1
  1054   922   947 1
  1055  1183  1222 1
  1056  1184  1222 1
  1057  1195  1222 1
  1058   924  1298 1
  1059   928   930 1
  1060   928   933 1
  1061   928   934 1
  1062   933   943 1
  1063   934   940 1
  1064   934   941 1
  1065   934   945 1
  1066   932   938 1
  1067   932   942 1
  1068   932   944 1
  1069   949   959 1
  1070   959  1138 1
  1071  1105  1113 1
  1072  1105  1138 1
  1073  1105  1111 1
  1074   951   959 1
  1075   952   960 1
  1076  1316  1326 1
  1077  1316  1328 1
  1078  1316  1322 1
  1079   955  1309 1
  1080   961  1056 1
  1081   967  1048 1
  1082   967  1060 1
  1083   967  1032 1
  1084   961   967 1
  1085   961  1038 1
  1086   961  1040 1
  1087   961  1042 1
  1088   961  1062 1
  1089   967  1040 1
  1090   967  1042 1
  1091   975  1062 1
  1092   961  1058 1
  1093   962  1061 1
  1094   962   968 1
  1095   962  1039 1
  1096   962  1041 1
  1097   993  1031 1
  1098   962  1057 1
  1099   993   997 1
  1100   962  1055 1
  1101   962  1037 1
  1102   993  1037 1
  1103   963  1060 1
  1104   963  1036 1
  1105   963  1053 1
  1106   963   966 1
  1107   963  1043 1
  1108   963  1045 1
  1109   966  1043 1
  1110   966  1045 1
  1111   966  1049 1
  1112   966  1033 1
  1113   966  1051 1
  1114   964  1046 1
  1115   964  1054 1
  1116   964   965 1
  1117   964  1035 1
  1118   964  1044 1
  1119   964  1059 1
  1120   968  1031 1
  1121   968  1039 1
  1122   968  1041 1
  1123   968  1047 1
  1124   968  1059 1
  1125   985  1059 1
  1126   969  1020 1
  1127  1020  1409 1
  1128   970  1019 1
  1129   980  1007 1
  1130   971  1022 1
  1131  1012  1018 1
  1132  1012  1022 1
  1133  1018  1056 1
  1134   973  1025 1
  1135   991  1030 1
  1136   992  1030 1
  1137   974  1024 1
  1138   982  1004 1
  1139  1004  1390 1
  1140   976  1061 1
  1141   995  1036 1
  1142   999  1003 1
  1143   977  1006 1
  1144   995   999 1
  1145   999  1006 1
  1146   995  1033 1
  1147  1000  1004 1
  1148  1005  1387 1
  1149   978  1005 1
  1150  1000  1005 1
  1151  1116  1490 1
  1152   981  1002 1
  1153   994   998 1
  1154   994  1032 1
  1155   994  1038 1
  1156   983  1411 1
  1157  1368  1411 1
  1158   984  1027 1
  1159   986  1060 1
  1160  1069  1074 1
  1161  1086  1088 1
  1162  1086  1092 1
  1163  1088  1094 1
  1164  1092  1100 1
  1165   987  1028 1
  1166   988  1028 1
  1167  1011  1017 1
  1168  1011  1023 1
  1169   989  1029 1
  1170   990  1029 1
  1171   996  1034 1
  1172   996  1035 1
  1173   996  1000 1
  1174   997  1007 1
  1175   997  1001 1
  1176  1001  1029 1
  1177   998  1002 1
  1178   998  1008 1
  1179  1003  1030 1
  1180  1067  1084 1
  1181  1077  1084 1
  1182  1013  1054 1
  1183  1013  1073 1
  1184  1070  1077 1
  1185  1073  1077 1
  1186  1110  1118 1
  1187  1073  1083 1
  1188  1013  1047 1
  1189  1015  1049 1
  1190  1017  1051 1
  1191  1089  1092 1
  1192  1023  1028 1
  1193  1089  1095 1
  1194  1089  1097 1
  1195  1089  1099 1
  1196  1026  1027 1
  1197  1063  1078 1
  1198  1066  1083 1
  1199  1064  1080 1
  1200  1065  1079 1
  1201  1079  1466 1
  1202  1068  1082 1
  1203  1071  1075 1
  1204  1090  1098 1
  1205  1090  1101 1
  1206  1075  1079 1
  1207  1090  1096 1
  1208  1075  1081 1
  1209  1072  1081 1
  1210  1074  1078 1
  1211  1074  1084 1
  1212  1078  1083 1
  1213  1109  1118 1
  1214  1118  1524 1
  1215  1118  1150 1
  1216  1106  1115 1
  1217  1106  1140 1
  1218  1106  1149 1
  1219  1140  1146 1
  1220  1107  1139 1
  1221  1114  1139 1
  1222  1108  1152 1
  1223  1144  1152 1
  1224  1152  1526 1
  1225  1152  1489 1
  1226  1126  1137 1
  1227  1119  1122 1
  1228  1119  1123 1
  1229  1120  1122 1
  1230  1120  1125 1
  1231  1120  1126 1
  1232  1122  1129 1
  1233  1123  1125 1
  1234  1125  1135 1
  1235  1126  1132 1
  1236  1126  1133 1
  1237  1123  1131 1
  1238  1119  1121 1
  1239  1124  1130 1
  1240  1124  1136 1
  1241  1124  1134 1
  1242  1121  1124 1
  1243  1121  1127 1
  1244  1121  1128 1
  1245  1139  1145 1
  1246  1139  1148 1
  1247  1143  1151 1
  1248  1153  1234 1
  1249  1349  1430 1
  1250  1153  1230 1
  1251  1153  1248 1
  1252  1153  1250 1
  1253  1153  1254 1
  1254  1153  1349 1
  1255  1210  1248 1
  1256  1210  1436 1
  1257  1250  1400 1
  1258  1254  1349 1
  1259  1349  1434 1
  1260  1349  1436 1
  1261  1400  1434 1
  1262  1349  1418 1
  1263  1153  1159 1
  1264  1153  1232 1
  1265  1349  1428 1
  1266  1154  1229 1
  1267  1154  1231 1
  1268  1154  1249 1
  1269  1154  1233 1
  1270  1154  1253 1
  1271  1168  1253 1
  1272  1154  1160 1
  1273  1154  1247 1
  1274  1159  1234 1
  1275  1159  1224 1
  1276  1206  1268 1
  1277  1155  1235 1
  1278  1155  1245 1
  1279  1155  1252 1
  1280  1159  1240 1
  1281  1159  1252 1
  1282  1178  1252 1
  1283  1206  1240 1
  1284  1206  1245 1
  1285  1159  1232 1
  1286  1155  1228 1
  1287  1155  1237 1
  1288  1155  1158 1
  1289  1156  1238 1
  1290  1156  1157 1
  1291  1156  1227 1
  1292  1156  1251 1
  1293  1177  1251 1
  1294  1156  1246 1
  1295  1156  1236 1
  1296  1157  1238 1
  1297  1157  1226 1
  1298  1157  1244 1
  1299  1157  1236 1
  1300  1157  1242 1
  1301  1158  1235 1
  1302  1158  1241 1
  1303  1158  1225 1
  1304  1158  1237 1
  1305  1158  1243 1
  1306  1158  1445 1
  1307  1209  1243 1
  1308  1209  1439 1
  1309  1158  1346 1
  1310  1160  1251 1
  1311  1160  1239 1
  1312  1160  1231 1
  1313  1182  1221 1
  1314  1160  1233 1
  1315  1160  1223 1
  1316  1263  1267 1
  1317  1264  1273 1
  1318  1161  1212 1
  1319  1162  1211 1
  1320  1201  1211 1
  1321  1171  1200 1
  1322  1163  1214 1
  1323  1191  1198 1
  1324  1165  1217 1
  1325  1191  1195 1
  1326  1166  1216 1
  1327  1167  1254 1
  1328  1169  1198 1
  1329  1315  1323 1
  1330  1315  1317 1
  1331  1188  1226 1
  1332  1170  1197 1
  1333  1174  1196 1
  1334  1188  1192 1
  1335  1188  1227 1
  1336  1192  1196 1
  1337  1192  1197 1
  1338  1189  1193 1
  1339  1172  1199 1
  1340  1189  1199 1
  1341  1202  1208 1
  1342  1179  1220 1
  1343  1180  1220 1
  1344  1181  1221 1
  1345  1185  1229 1
  1346  1193  1221 1
  1347  1185  1223 1
  1348  1185  1189 1
  1349  1186  1190 1
  1350  1186  1224 1
  1351  1186  1230 1
  1352  1187  1191 1
  1353  1187  1225 1
  1354  1187  1228 1
  1355  1203  1209 1
  1356  1215  1220 1
  1357  1203  1215 1
  1358  1204  1214 1
  1359  1204  1408 1
  1360  1204  1210 1
  1361  1205  1265 1
  1362  1205  1239 1
  1363  1205  1246 1
  1364  1403  1410 1
  1365  1207  1241 1
  1366  1207  1393 1
  1367  1207  1441 1
  1368  1217  1393 1
  1369  1393  1403 1
  1370  1208  1242 1
  1371  1277  1279 1
  1372  1277  1282 1
  1373  1282  1290 1
  1374  1282  1288 1
  1375  1277  1283 1
  1376  1282  1293 1
  1377  1394  1400 1
  1378  1212  1394 1
  1379  1259  1276 1
  1380  1261  1266 1
  1381  1266  1276 1
  1382  1270  1275 1
  1383  1255  1270 1
  1384  1266  1270 1
  1385  1257  1271 1
  1386  1317  1327 1
  1387  1265  1269 1
  1388  1258  1275 1
  1389  1265  1275 1
  1390  1260  1274 1
  1391  1262  1269 1
  1392  1267  1271 1
  1393  1267  1273 1
  1394  1312  1318 1
  1395  1318  1324 1
  1396  1318  1325 1
  1397  1318  1329 1
  1398  1269  1276 1
  1399  1312  1314 1
  1400  1312  1317 1
  1401  1278  1280 1
  1402  1278  1475 1
  1403  1284  1292 1
  1404  1281  1287 1
  1405  1278  1284 1
  1406  1281  1284 1
  1407  1281  1289 1
  1408  1281  1291 1
  1409  1284  1487 1
  1410  1280  1286 1
  1411  1280  1471 1
  1412  1469  1471 1
  1413  1469  1475 1
  1414  1469  1474 1
  1415  1475  1486 1
  1416  1283  1294 1
  1417  1285  1471 1
  1418  1298  1307 1
  1419  1332  1338 1
  1420  1298  1332 1
  1421  1298  1341 1
  1422  1301  1310 1
  1423  1302  1310 1
  1424  1310  1342 1
  1425  1313  1316 1
  1426  1311  1315 1
  1427  1311  1313 1
  1428  1311  1314 1
  1429  1313  1320 1
  1430  1314  1321 1
  1431  1313  1319 1
  1432  1331  1337 1
  1433  1306  1331 1
  1434  1331  1340 1
  1435  1333  1343 1
  1436  1343  1522 1
  1437  1489  1497 1
  1438  1489  1522 1
  1439  1489  1495 1
  1440  1336  1344 1
  1441  1345  1351 1
  1442  1345  1426 1
  1443  1345  1422 1
  1444  1345  1424 1
  1445  1345  1440 1
  1446  1345  1442 1
  1447  1345  1446 1
  1448  1346  1423 1
  1449  1346  1352 1
  1450  1346  1441 1
  1451  1377  1381 1
  1452  1346  1439 1
  1453  1346  1445 1
  1454  1346  1421 1
  1455  1346  1425 1
  1456  1377  1415 1
  1457  1377  1421 1
  1458  1347  1420 1
  1459  1347  1437 1
  1460  1347  1427 1
  1461  1347  1429 1
  1462  1347  1444 1
  1463  1370  1444 1
  1464  1347  1350 1
  1465  1348  1430 1
  1466  1348  1349 1
  1467  1348  1419 1
  1468  1352  1423 1
  1469  1348  1438 1
  1470  1348  1443 1
  1471  1352  1431 1
  1472  1352  1443 1
  1473  1369  1443 1
  1474  1397  1431 1
  1475  1397  1438 1
  1476  1397  1457 1
  1477  1348  1428 1
  1478  1352  1415 1
  1479  1352  1425 1
  1480  1350  1427 1
  1481  1350  1429 1
  1482  1350  1433 1
  1483  1350  1417 1
  1484  1350  1435 1
  1485  1401  1435 1
  1486  1372  1412 1
  1487  1353  1404 1
  1488  1354  1403 1
  1489  1355  1406 1
  1490  1396  1402 1
  1491  1396  1406 1
  1492  1402  1440 1
  1493  1376  1414 1
  1494  1357  1409 1
  1495  1358  1408 1
  1496  1366  1388 1
  1497  1359  1446 1
  1498  1360  1445 1
  1499  1379  1420 1
  1500  1379  1383 1
  1501  1361  1390 1
  1502  1379  1417 1
  1503  1362  1389 1
  1504  1363  1392 1
  1505  1364  1391 1
  1506  1382  1392 1
  1507  1365  1386 1
  1508  1378  1382 1
  1509  1378  1416 1
  1510  1382  1386 1
  1511  1378  1422 1
  1512  1395  1401 1
  1513  1371  1412 1
  1514  1395  1407 1
  1515  1407  1412 1
  1516  1373  1413 1
  1517  1374  1413 1
  1518  1375  1414 1
  1519  1490  1499 1
  1520  1490  1524 1
  1521  1524  1530 1
  1522  1490  1533 1
  1523  1384  1388 1
  1524  1380  1384 1
  1525  1380  1418 1
  1526  1380  1419 1
  1527  1384  1389 1
  1528  1381  1385 1
  1529  1385  1413 1
  1530  1381  1391 1
  1531  1383  1387 1
  1532  1387  1414 1
  1533  1383  1390 1
  1534  1399  1433 1
  1535  1503  1506 1
  1536  1507  1509 1
  1537  1505  1508 1
  1538  1507  1515 1
  1539  1503  1505 1
  1540  1503  1507 1
  1541  1505  1511 1
  1542  1505  1512 1
  1543  1455  1459 1
  1544  1474  1482 1
  1545  1474  1485 1
  1546  1459  1463 1
  1547  1474  1480 1
  1548  1459  1465 1
  1549  1447  1462 1
  1550  1450  1467 1
  1551  1462  1467 1
  1552  1448  1464 1
  1553  1449  1463 1
  1554  1451  1468 1
  1555  1458  1468 1
  1556  1458  1462 1
  1557  1452  1466 1
  1558  1453  1458 1
  1559  1470  1472 1
  1560  1472  1478 1
  1561  1470  1476 1
  1562  1461  1468 1
  1563  1454  1461 1
  1564  1456  1465 1
  1565  1457  1461 1
  1566  1457  1467 1
  1567  1494  1502 1
  1568  1473  1476 1
  1569  1473  1479 1
  1570  1473  1481 1
  1571  1473  1483 1
  1572  1476  1484 1
  1573  1493  1502 1
  1574  1492  1536 1
  1575  1504  1506 1
  1576  1504  1509 1
  1577  1504  1510 1
  1578  1506  1513 1
  1579  1510  1517 1
  1580  1510  1521 1
  1581  1509  1519 1
  1582  1510  1516 1
  1583  1498  1523 1
  1584  1502  1534 1
  1585  1508  1514 1
  1586  1508  1520 1
  1587  1508  1518 1
  1588  1525  1535 1
  1589  1527  1535 1
  1590  1528  1536 1
