@<TRIPOS>MOLECULE
frame0006
 1536 1686 0 0 0
SMALL
NO_CHARGES

@<TRIPOS>ATOM
      1 Ti1         -2.8554     2.2298    11.2464 Ti        1 MOL       0.0000
      2 Ti2          7.9750     5.1110     1.8816 Ti        1 MOL       0.0000
      3 Ti3          1.2412    -1.7064     9.4264 Ti        1 MOL       0.0000
      4 Ti4          2.7524     7.4557     3.6534 Ti        1 MOL       0.0000
      5 Ti5          1.7539     9.1340     1.7490 Ti        1 MOL       0.0000
      6 Ti6          3.1294    -1.9608    11.3798 Ti        1 MOL       0.0000
      7 Ti7         -1.9062     0.4939     9.3549 Ti        1 MOL       0.0000
      8 Ti8          5.9872     5.4135     3.7290 Ti        1 MOL       0.0000
      9 H1          -2.3536     6.1269    11.0269 H         1 MOL       0.0000
     10 H2           8.7838     1.2049     2.2023 H         1 MOL       0.0000
     11 H3          -6.8153     1.4731    10.8640 H         1 MOL       0.0000
     12 H4          11.3572     7.1153     2.0822 H         1 MOL       0.0000
     13 H5           4.1051    -5.9953    10.9939 H         1 MOL       0.0000
     14 H6          -2.3047     8.5441     2.0711 H         1 MOL       0.0000
     15 H7          -2.3867     0.4312    12.9709 H         1 MOL       0.0000
     16 H8           6.0995     4.8683     0.1817 H         1 MOL       0.0000
     17 H9           3.6394    -2.6279     5.8687 H         1 MOL       0.0000
     18 H10          1.0290     9.2927     7.2723 H         1 MOL       0.0000
     19 H11         -5.9789     3.8825     8.9990 H         1 MOL       0.0000
     20 H12         10.7298     3.0266     4.1876 H         1 MOL       0.0000
     21 H13         -3.6778     2.4351     5.6652 H         1 MOL       0.0000
     22 H14         -1.3462    10.9619     4.1022 H         1 MOL       0.0000
     23 H15          2.1461    12.2368     2.6045 H         1 MOL       0.0000
     24 H16          8.6260    -0.8139     3.4048 H         1 MOL       0.0000
     25 H17          4.8451     7.1358     2.3148 H         1 MOL       0.0000
     26 H18          0.1606     0.1420    10.7200 H         1 MOL       0.0000
     27 H19          7.3642    -0.0259     9.7695 H         1 MOL       0.0000
     28 H20          5.8831    -0.4950    10.5168 H         1 MOL       0.0000
     29 H21          7.9383     4.4077     8.6706 H         1 MOL       0.0000
     30 H22          7.3686     4.7663     7.0520 H         1 MOL       0.0000
     31 H23          6.8754    -4.9808     9.5794 H         1 MOL       0.0000
     32 H24          5.5962    -3.8802    10.0368 H         1 MOL       0.0000
     33 C1           8.5531     4.3697     4.7451 C         1 MOL       0.0000
     34 C2          -3.8160     2.4911     8.3994 C         1 MOL       0.0000
     35 C3           3.8218    -2.7171     8.5017 C         1 MOL       0.0000
     36 C4           0.8163     9.4262     4.6128 C         1 MOL       0.0000
     37 C5           9.4491     3.7654     5.7403 C         1 MOL       0.0000
     38 C6          -4.7479     3.1162     7.4223 C         1 MOL       0.0000
     39 C7           4.7619    -3.3315     7.5545 C         1 MOL       0.0000
     40 C8          -0.0735    10.0730     5.6125 C         1 MOL       0.0000
     41 C9           9.2003     3.8403     7.1467 C         1 MOL       0.0000
     42 C10         -4.5315     2.9962     6.0343 C         1 MOL       0.0000
     43 C11          5.8914    -4.0918     8.0076 C         1 MOL       0.0000
     44 C12         -1.1682    10.8460     5.1676 C         1 MOL       0.0000
     45 C13          0.1810     9.9023     6.9674 C         1 MOL       0.0000
     46 C14          4.5142    -3.1993     6.1706 C         1 MOL       0.0000
     47 C15         10.5828     3.0664     5.2646 C         1 MOL       0.0000
     48 C16         -5.8480     3.8086     7.9210 C         1 MOL       0.0000
     49 C17          8.7648     1.2840     0.0582 C         1 MOL       0.0000
     50 C18          2.2951    13.0756     0.0832 C         1 MOL       0.0000
     51 C19          6.6143    -0.0189    13.0272 C         1 MOL       0.0000
     52 C20         -6.7440     1.5235    13.0078 C         1 MOL       0.0000
     53 C21          3.4992     5.1125     5.6180 C         1 MOL       0.0000
     54 C22         -1.2569    -1.9819     7.5361 C         1 MOL       0.0000
     55 C23          3.9940    -4.3272    13.1300 C         1 MOL       0.0000
     56 C24          2.2024    11.6421     0.0457 C         1 MOL       0.0000
     57 C25          5.3165    -0.6357    13.0740 C         1 MOL       0.0000
     58 C26         -5.3417     1.9379    13.0323 C         1 MOL       0.0000
     59 C27          8.8042     0.6149     1.2879 C         1 MOL       0.0000
     60 C28         -2.3426     6.7153    11.9408 C         1 MOL       0.0000
     61 C29         -4.0954     7.8789     1.0761 C         1 MOL       0.0000
     62 C30         -7.3768     1.2938    11.7793 C         1 MOL       0.0000
     63 C31          7.3089     0.2494    11.7938 C         1 MOL       0.0000
     64 C32         -2.8062     8.3591     1.1253 C         1 MOL       0.0000
     65 C33          4.1467    -6.5225    11.9429 C         1 MOL       0.0000
     66 C34          8.8259    -0.7862     1.3695 C         1 MOL       0.0000
     67 N1           8.8810    -1.3851     2.6076 N         1 MOL       0.0000
     68 N2           6.7299     0.0665    10.5548 N         1 MOL       0.0000
     69 N3           8.1195     4.4866     7.6780 N         1 MOL       0.0000
     70 N4           6.2224    -4.2500     9.3250 N         1 MOL       0.0000
     71 O1           7.3768     4.7748     5.1109 O         1 MOL       0.0000
     72 O2          -3.0470     1.5403     8.0011 O         1 MOL       0.0000
     73 O3           4.2032    -2.5927     9.7228 O         1 MOL       0.0000
     74 O4           0.7505     9.8559     3.4131 O         1 MOL       0.0000
     75 O5           1.5868     8.4690     4.9992 O         1 MOL       0.0000
     76 O6           2.6513    -2.3487     8.0962 O         1 MOL       0.0000
     77 O7           8.9650     4.4505     3.5334 O         1 MOL       0.0000
     78 O8          -3.8580     2.9274     9.5991 O         1 MOL       0.0000
     79 O9           6.2924     4.1956     2.5344 O         1 MOL       0.0000
     80 O10         -1.3538     2.0542    10.0994 O         1 MOL       0.0000
     81 O11          7.2312     6.4829     2.9843 O         1 MOL       0.0000
     82 O12         -3.1060     0.3295    10.5921 O         1 MOL       0.0000
     83 O13          1.5006    -2.8784    10.6868 O         1 MOL       0.0000
     84 O14          3.2690     9.0170     2.9149 O         1 MOL       0.0000
     85 O15          2.4545    -0.6169    10.2227 O         1 MOL       0.0000
     86 O16          1.5628     7.2599     2.3975 O         1 MOL       0.0000
     87 O17          4.7203     4.9326     5.2637 O         1 MOL       0.0000
     88 O18         -1.9146    -0.9469     7.9143 O         1 MOL       0.0000
     89 O19          3.8718    -3.7326    11.9889 O         1 MOL       0.0000
     90 O20          2.1193    10.9406     1.1409 O         1 MOL       0.0000
     91 O21          4.6739    -0.9445    11.9838 O         1 MOL       0.0000
     92 O22         -0.1167     9.1049     1.0808 O         1 MOL       0.0000
     93 O23         -0.0951    -2.2764     7.9939 O         1 MOL       0.0000
     94 O24          2.7573     6.0334     5.1246 O         1 MOL       0.0000
     95 O25          9.4121     6.1301     1.1270 O         1 MOL       0.0000
     96 O26         -4.7422     2.1697    11.9148 O         1 MOL       0.0000
     97 O27          8.6166     3.3758     1.1564 O         1 MOL       0.0000
     98 O28         -2.4740     3.9521    11.9961 O         1 MOL       0.0000
     99 O29          4.4842     6.5871     3.0354 O         1 MOL       0.0000
    100 O30         -0.2177    -0.4167    10.0165 O         1 MOL       0.0000
    101 O31          6.9383     5.3620     0.1026 O         1 MOL       0.0000
    102 O32         -2.2643     1.3980    13.0309 O         1 MOL       0.0000
    103 H25          3.7006     1.4620     8.5219 H         1 MOL       0.0000
    104 H26         -6.6034    10.6155     6.1063 H         1 MOL       0.0000
    105 H27          4.4541    10.2146     5.5862 H         1 MOL       0.0000
    106 H28          4.6971     3.0056     6.8055 H         1 MOL       0.0000
    107 H29          0.0418     3.7264     8.4300 H         1 MOL       0.0000
    108 H30         12.1289    -2.6531     7.0137 H         1 MOL       0.0000
    109 H31          1.3736     1.8297     9.2937 H         1 MOL       0.0000
    110 H32          1.0415     5.2694     6.7103 H         1 MOL       0.0000
    111 H33          5.7906     8.4460     4.4666 H         1 MOL       0.0000
    112 H34          8.2469     8.3525     4.7519 H         1 MOL       0.0000
    113 C35          2.9221     4.2181     6.6529 C         1 MOL       0.0000
    114 C36          1.8135     2.5056     8.5619 C         1 MOL       0.0000
    115 C37          6.2886     9.1843     5.0944 C         1 MOL       0.0000
    116 C38         -1.9136    -2.9497     6.6248 C         1 MOL       0.0000
    117 C39          1.6081     4.4306     7.1093 C         1 MOL       0.0000
    118 C40          3.1271     2.2969     8.1222 C         1 MOL       0.0000
    119 C41          5.5357    10.1917     5.7089 C         1 MOL       0.0000
    120 C42         -7.6806    10.6426     5.9576 C         1 MOL       0.0000
    121 C43          7.6775     9.1324     5.2549 C         1 MOL       0.0000
    122 C44         12.6926    -3.4482     6.5319 C         1 MOL       0.0000
    123 C45          3.6822     3.1521     7.1691 C         1 MOL       0.0000
    124 C46          1.0564     3.5740     8.0640 C         1 MOL       0.0000
    125 N5           5.5063    10.8374     1.2760 N         1 MOL       0.0000
    126 N6           2.1255     2.7606    12.8709 N         1 MOL       0.0000
    127 C47          5.3192    11.4769     0.0502 C         1 MOL       0.0000
    128 C48          1.4336     3.7568    12.2044 C         1 MOL       0.0000
    129 C49          4.3988     2.7116    11.8718 C         1 MOL       0.0000
    130 C50          5.0357    11.3659     2.5848 C         1 MOL       0.0000
    131 C51          6.4426     9.8834     1.0869 C         1 MOL       0.0000
    132 C52          3.1688     1.9041    12.2743 C         1 MOL       0.0000
    133 H35          0.1305     5.3390    13.0544 H         1 MOL       0.0000
    134 H36          1.5239     3.9130    11.1353 H         1 MOL       0.0000
    135 H37          4.1373     3.5072    11.1622 H         1 MOL       0.0000
    136 H38          4.6515    12.3834     2.4394 H         1 MOL       0.0000
    137 H39          4.8676     3.1859    12.7415 H         1 MOL       0.0000
    138 H40          4.3358    10.6911     3.0410 H         1 MOL       0.0000
    139 H41          5.1298     2.0495    11.3908 H         1 MOL       0.0000
    140 H42          2.7227     1.3836    11.4177 H         1 MOL       0.0000
    141 H43          5.8707    11.4625     3.2794 H         1 MOL       0.0000
    142 H44          6.9425     9.3181     1.8622 H         1 MOL       0.0000
    143 H45          3.4026     1.1441    13.0272 H         1 MOL       0.0000
    144 N7          13.5070    -0.3191     0.2716 N         1 MOL       0.0000
    145 C53          0.3747     0.3777     1.7288 C         1 MOL       0.0000
    146 C54          9.7014    -5.8117    11.0663 C         1 MOL       0.0000
    147 O33         13.7939    -0.5652     2.7496 O         1 MOL       0.0000
    148 O34          8.3997    11.9023     1.2224 O         1 MOL       0.0000
    149 O35          1.3062     6.7819    10.9858 O         1 MOL       0.0000
    150 O36          3.8206     5.9448    10.8114 O         1 MOL       0.0000
    151 F1           0.0696     1.8789     2.0612 F         1 MOL       0.0000
    152 F2          10.5958    -4.7015    11.7825 F         1 MOL       0.0000
    153 F3           1.5464     0.7992     0.7927 F         1 MOL       0.0000
    154 F4           0.0501    -0.0783     3.4929 F         1 MOL       0.0000
    155 F5           8.6337    -4.9656    10.8889 F         1 MOL       0.0000
    156 F6           2.9425     8.5043     9.2136 F         1 MOL       0.0000
    157 S1          14.3296    -1.1834     1.4376 S         1 MOL       0.0000
    158 S2           2.5934     6.9525    11.5721 S         1 MOL       0.0000
    159 N8           3.0517     1.4508     3.1494 N         1 MOL       0.0000
    160 N9           1.1702     2.1554     4.0707 N         1 MOL       0.0000
    161 C55          4.0346     1.1310     2.0807 C         1 MOL       0.0000
    162 C56          1.9786     2.2403     2.9823 C         1 MOL       0.0000
    163 C57          2.9662     0.8673     4.4064 C         1 MOL       0.0000
    164 C58          3.8416    -0.2186     1.3834 C         1 MOL       0.0000
    165 C59          1.7941     1.2954     4.9678 C         1 MOL       0.0000
    166 C60         -0.2733     2.5236     4.1707 C         1 MOL       0.0000
    167 H46          5.0153     1.1718     2.5630 H         1 MOL       0.0000
    168 H47          3.9835     1.9615     1.3617 H         1 MOL       0.0000
    169 H48          1.7626     2.7234     2.0355 H         1 MOL       0.0000
    170 H49          4.6845    -0.4308     0.7187 H         1 MOL       0.0000
    171 H50          3.7775     0.2739     4.7955 H         1 MOL       0.0000
    172 H51         -0.4263     3.1952     5.0081 H         1 MOL       0.0000
    173 H52         -0.6042     3.0184     3.2551 H         1 MOL       0.0000
    174 H53          3.6707    -1.0391     2.0896 H         1 MOL       0.0000
    175 H54          1.3401     1.0673     5.9208 H         1 MOL       0.0000
    176 H55          2.9805    -0.2337     0.7307 H         1 MOL       0.0000
    177 H56         -0.8934     1.6076     4.2340 H         1 MOL       0.0000
    178 N10         -0.6177     0.5310     1.3341 N         1 MOL       0.0000
    179 C61         14.2434    -2.0317     3.0108 C         1 MOL       0.0000
    180 C62          9.7360    -6.6281    12.2959 C         1 MOL       0.0000
    181 O37          0.5079     2.9239     0.3359 O         1 MOL       0.0000
    182 O38         -5.0462    13.0618     2.6349 O         1 MOL       0.0000
    183 O39         -3.8490    -6.4530    12.0254 O         1 MOL       0.0000
    184 O40          9.9657    12.3607     0.3843 O         1 MOL       0.0000
    185 F7          13.8861    -1.6059     4.2893 F         1 MOL       0.0000
    186 F8           8.4364    -5.9170    12.9111 F         1 MOL       0.0000
    187 F9           6.5425    12.6049     1.8680 F         1 MOL       0.0000
    188 F10          7.6744    11.1894     3.2590 F         1 MOL       0.0000
    189 F11         10.3894    -6.2552    10.7725 F         1 MOL       0.0000
    190 F12          3.1020     6.1284    12.1429 F         1 MOL       0.0000
    191 S3           0.0994     1.5068     0.0349 S         1 MOL       0.0000
    192 S4          -6.4090    13.4355     1.7978 S         1 MOL       0.0000
    193 Ti9         -7.4904    -4.8362    24.3414 Ti        1 MOL       0.0000
    194 Ti10         3.3400    -1.9550    14.9766 Ti        1 MOL       0.0000
    195 Ti11        -3.3938    -8.7724    22.5214 Ti        1 MOL       0.0000
    196 Ti12        -1.8826     0.3897    16.7484 Ti        1 MOL       0.0000
    197 Ti13        -2.8811     2.0680    14.8440 Ti        1 MOL       0.0000
    198 Ti14        -1.5056    -9.0268    24.4748 Ti        1 MOL       0.0000
    199 Ti15        -6.5412    -6.5721    22.4499 Ti        1 MOL       0.0000
    200 Ti16         1.3522    -1.6525    16.8240 Ti        1 MOL       0.0000
    201 H57         -6.9886    -0.9391    24.1219 H         1 MOL       0.0000
    202 H58          4.1488    -5.8611    15.2973 H         1 MOL       0.0000
    203 H59        -11.4503    -5.5929    23.9590 H         1 MOL       0.0000
    204 H60          6.7222     0.0493    15.1772 H         1 MOL       0.0000
    205 H61         -0.5299   -13.0613    24.0889 H         1 MOL       0.0000
    206 H62         -6.9397     1.4781    15.1661 H         1 MOL       0.0000
    207 H63         -7.0217    -6.6348    26.0659 H         1 MOL       0.0000
    208 H64          1.4645    -2.1977    13.2767 H         1 MOL       0.0000
    209 H65         -0.9956    -9.6939    18.9637 H         1 MOL       0.0000
    210 H66         -3.6060     2.2267    20.3673 H         1 MOL       0.0000
    211 H67        -10.6139    -3.1835    22.0940 H         1 MOL       0.0000
    212 H68          6.0948    -4.0393    17.2826 H         1 MOL       0.0000
    213 H69         -8.3127    -4.6309    18.7602 H         1 MOL       0.0000
    214 H70         -5.9812     3.8959    17.1972 H         1 MOL       0.0000
    215 H71         -2.4889     5.1708    15.6995 H         1 MOL       0.0000
    216 H72          3.9910    -7.8799    16.4998 H         1 MOL       0.0000
    217 H73          0.2101     0.0698    15.4098 H         1 MOL       0.0000
    218 H74         -4.4744    -6.9240    23.8150 H         1 MOL       0.0000
    219 H75          2.7292    -7.0919    22.8645 H         1 MOL       0.0000
    220 H76          1.2481    -7.5610    23.6118 H         1 MOL       0.0000
    221 H77          3.3033    -2.6583    21.7655 H         1 MOL       0.0000
    222 H78          2.7336    -2.2997    20.1470 H         1 MOL       0.0000
    223 H79          2.2404   -12.0468    22.6744 H         1 MOL       0.0000
    224 H80          0.9612   -10.9462    23.1318 H         1 MOL       0.0000
    225 C63          3.9181    -2.6963    17.8401 C         1 MOL       0.0000
    226 C64         -8.4510    -4.5749    21.4944 C         1 MOL       0.0000
    227 C65         -0.8132    -9.7831    21.5967 C         1 MOL       0.0000
    228 C66         -3.8187     2.3602    17.7078 C         1 MOL       0.0000
    229 C67          4.8141    -3.3006    18.8353 C         1 MOL       0.0000
    230 C68         -9.3829    -3.9498    20.5173 C         1 MOL       0.0000
    231 C69          0.1269   -10.3975    20.6495 C         1 MOL       0.0000
    232 C70         -4.7085     3.0070    18.7075 C         1 MOL       0.0000
    233 C71          4.5653    -3.2257    20.2417 C         1 MOL       0.0000
    234 C72         -9.1665    -4.0698    19.1293 C         1 MOL       0.0000
    235 C73          1.2564   -11.1578    21.1026 C         1 MOL       0.0000
    236 C74         -5.8032     3.7800    18.2626 C         1 MOL       0.0000
    237 C75         -4.4540     2.8362    20.0624 C         1 MOL       0.0000
    238 C76         -0.1208   -10.2653    19.2656 C         1 MOL       0.0000
    239 C77          5.9478    -3.9996    18.3596 C         1 MOL       0.0000
    240 C78        -10.4831    -3.2574    21.0160 C         1 MOL       0.0000
    241 C79          4.1298    -5.7820    13.1532 C         1 MOL       0.0000
    242 C80         -2.3399     6.0096    13.1782 C         1 MOL       0.0000
    243 C81          1.9793    -7.0849    26.1222 C         1 MOL       0.0000
    244 C82        -11.3790    -5.5425    26.1028 C         1 MOL       0.0000
    245 C83         -1.1358    -1.9535    18.7130 C         1 MOL       0.0000
    246 C84         -5.8919    -9.0479    20.6311 C         1 MOL       0.0000
    247 C85         -0.6410   -11.3932    26.2250 C         1 MOL       0.0000
    248 C86         -2.4326     4.5761    13.1407 C         1 MOL       0.0000
    249 C87          0.6815    -7.7017    26.1690 C         1 MOL       0.0000
    250 C88         -9.9767    -5.1281    26.1273 C         1 MOL       0.0000
    251 C89          4.1692    -6.4511    14.3829 C         1 MOL       0.0000
    252 C90         -6.9776    -0.3507    25.0358 C         1 MOL       0.0000
    253 C91         -8.7304     0.8129    14.1711 C         1 MOL       0.0000
    254 C92        -12.0118    -5.7722    24.8743 C         1 MOL       0.0000
    255 C93          2.6739    -6.8166    24.8888 C         1 MOL       0.0000
    256 C94         -7.4412     1.2931    14.2203 C         1 MOL       0.0000
    257 C95         -0.4883   -13.5885    25.0379 C         1 MOL       0.0000
    258 C96          4.1909    -7.8522    14.4645 C         1 MOL       0.0000
    259 N11          4.2460    -8.4511    15.7026 N         1 MOL       0.0000
    260 N12          2.0949    -6.9995    23.6498 N         1 MOL       0.0000
    261 N13          3.4845    -2.5794    20.7730 N         1 MOL       0.0000
    262 N14          1.5874   -11.3160    22.4200 N         1 MOL       0.0000
    263 O41          2.7418    -2.2912    18.2059 O         1 MOL       0.0000
    264 O42         -7.6820    -5.5257    21.0961 O         1 MOL       0.0000
    265 O43         -0.4318    -9.6587    22.8178 O         1 MOL       0.0000
    266 O44         -3.8845     2.7899    16.5082 O         1 MOL       0.0000
    267 O45         -3.0482     1.4030    18.0942 O         1 MOL       0.0000
    268 O46         -1.9837    -9.4147    21.1912 O         1 MOL       0.0000
    269 O47          4.3300    -2.6155    16.6284 O         1 MOL       0.0000
    270 O48         -8.4930    -4.1386    22.6941 O         1 MOL       0.0000
    271 O49          1.6574    -2.8704    15.6294 O         1 MOL       0.0000
    272 O50         -5.9888    -5.0118    23.1944 O         1 MOL       0.0000
    273 O51          2.5962    -0.5831    16.0793 O         1 MOL       0.0000
    274 O52         -7.7410    -6.7365    23.6871 O         1 MOL       0.0000
    275 O53         -3.1344    -9.9444    23.7818 O         1 MOL       0.0000
    276 O54         -1.3660     1.9510    16.0099 O         1 MOL       0.0000
    277 O55         -2.1805    -7.6829    23.3177 O         1 MOL       0.0000
    278 O56         -3.0722     0.1939    15.4925 O         1 MOL       0.0000
    279 O57          0.0853    -2.1334    18.3587 O         1 MOL       0.0000
    280 O58         -6.5496    -8.0129    21.0093 O         1 MOL       0.0000
    281 O59         -0.7632   -10.7986    25.0839 O         1 MOL       0.0000
    282 O60         -2.5157     3.8746    14.2359 O         1 MOL       0.0000
    283 O61          0.0389    -8.0105    25.0788 O         1 MOL       0.0000
    284 O62         -4.7517     2.0389    14.1758 O         1 MOL       0.0000
    285 O63         -4.7301    -9.3424    21.0889 O         1 MOL       0.0000
    286 O64         -1.8777    -1.0326    18.2196 O         1 MOL       0.0000
    287 O65          4.7771    -0.9359    14.2220 O         1 MOL       0.0000
    288 O66         -9.3772    -4.8963    25.0098 O         1 MOL       0.0000
    289 O67          3.9816    -3.6902    14.2514 O         1 MOL       0.0000
    290 O68         -7.1090    -3.1139    25.0911 O         1 MOL       0.0000
    291 O69         -0.1508    -0.4789    16.1304 O         1 MOL       0.0000
    292 O70         -4.8527    -7.4827    23.1115 O         1 MOL       0.0000
    293 O71          2.3033    -1.7041    13.1976 O         1 MOL       0.0000
    294 O72         -6.8993    -5.6680    26.1259 O         1 MOL       0.0000
    295 H81         -0.9344    -5.6040    21.6169 H         1 MOL       0.0000
    296 H82        -11.2384     3.5495    19.2013 H         1 MOL       0.0000
    297 H83         -0.1809     3.1486    18.6812 H         1 MOL       0.0000
    298 H84          0.0621    -4.0604    19.9005 H         1 MOL       0.0000
    299 H85         -4.5932    -3.3396    21.5250 H         1 MOL       0.0000
    300 H86          7.4939    -9.7191    20.1087 H         1 MOL       0.0000
    301 H87         -3.2614    -5.2363    22.3887 H         1 MOL       0.0000
    302 H88         -3.5935    -1.7966    19.8053 H         1 MOL       0.0000
    303 H89          1.1556     1.3800    17.5616 H         1 MOL       0.0000
    304 H90          3.6119     1.2865    17.8469 H         1 MOL       0.0000
    305 C97         -1.7129    -2.8479    19.7479 C         1 MOL       0.0000
    306 C98         -2.8215    -4.5604    21.6569 C         1 MOL       0.0000
    307 C99          1.6536     2.1183    18.1894 C         1 MOL       0.0000
    308 C100        -6.5486   -10.0157    19.7198 C         1 MOL       0.0000
    309 C101        -3.0269    -2.6354    20.2043 C         1 MOL       0.0000
    310 C102        -1.5079    -4.7691    21.2172 C         1 MOL       0.0000
    311 C103         0.9007     3.1257    18.8039 C         1 MOL       0.0000
    312 C104       -12.3156     3.5766    19.0526 C         1 MOL       0.0000
    313 C105         3.0425     2.0664    18.3499 C         1 MOL       0.0000
    314 C106         8.0576   -10.5142    19.6269 C         1 MOL       0.0000
    315 C107        -0.9528    -3.9139    20.2641 C         1 MOL       0.0000
    316 C108        -3.5786    -3.4920    21.1590 C         1 MOL       0.0000
    317 N15          0.8713     3.7714    14.3710 N         1 MOL       0.0000
    318 N16         -2.5095    -4.3054    25.9659 N         1 MOL       0.0000
    319 C109         0.6842     4.4109    13.1452 C         1 MOL       0.0000
    320 C110        -3.2014    -3.3092    25.2994 C         1 MOL       0.0000
    321 C111        -0.2362    -4.3544    24.9668 C         1 MOL       0.0000
    322 C112         0.4007     4.2999    15.6798 C         1 MOL       0.0000
    323 C113         1.8076     2.8174    14.1819 C         1 MOL       0.0000
    324 C114        -1.4662    -5.1619    25.3693 C         1 MOL       0.0000
    325 H91         -4.5045    -1.7270    26.1494 H         1 MOL       0.0000
    326 H92         -3.1111    -3.1530    24.2303 H         1 MOL       0.0000
    327 H93         -0.4977    -3.5588    24.2572 H         1 MOL       0.0000
    328 H94          0.0165     5.3174    15.5344 H         1 MOL       0.0000
    329 H95          0.2326    -3.8801    25.8365 H         1 MOL       0.0000
    330 H96         -0.2992     3.6251    16.1360 H         1 MOL       0.0000
    331 H97          0.4948    -5.0165    24.4858 H         1 MOL       0.0000
    332 H98         -1.9123    -5.6824    24.5127 H         1 MOL       0.0000
    333 H99          1.2357     4.3965    16.3744 H         1 MOL       0.0000
    334 H100         2.3075     2.2521    14.9572 H         1 MOL       0.0000
    335 H101        -1.2324    -5.9219    26.1222 H         1 MOL       0.0000
    336 N17          8.8720    -7.3851    13.3666 N         1 MOL       0.0000
    337 C115        -4.2603    -6.6883    14.8238 C         1 MOL       0.0000
    338 C116         5.0664   -12.8777    24.1613 C         1 MOL       0.0000
    339 O73          9.1589    -7.6312    15.8446 O         1 MOL       0.0000
    340 O74          3.7647     4.8363    14.3174 O         1 MOL       0.0000
    341 O75         -3.3288    -0.2841    24.0808 O         1 MOL       0.0000
    342 O76         -0.8144    -1.1212    23.9064 O         1 MOL       0.0000
    343 F13         -4.5654    -5.1871    15.1562 F         1 MOL       0.0000
    344 F14          5.9608   -11.7675    24.8775 F         1 MOL       0.0000
    345 F15         -3.0886    -6.2668    13.8877 F         1 MOL       0.0000
    346 F16         -4.5849    -7.1443    16.5879 F         1 MOL       0.0000
    347 F17          3.9987   -12.0316    23.9839 F         1 MOL       0.0000
    348 F18         -1.6925     1.4383    22.3086 F         1 MOL       0.0000
    349 S5           9.6946    -8.2494    14.5326 S         1 MOL       0.0000
    350 S6          -2.0416    -0.1135    24.6671 S         1 MOL       0.0000
    351 N18         -1.5833    -5.6152    16.2444 N         1 MOL       0.0000
    352 N19         -3.4648    -4.9106    17.1657 N         1 MOL       0.0000
    353 C117        -0.6004    -5.9350    15.1757 C         1 MOL       0.0000
    354 C118        -2.6564    -4.8257    16.0773 C         1 MOL       0.0000
    355 C119        -1.6688    -6.1987    17.5014 C         1 MOL       0.0000
    356 C120        -0.7934    -7.2846    14.4784 C         1 MOL       0.0000
    357 C121        -2.8409    -5.7706    18.0628 C         1 MOL       0.0000
    358 C122        -4.9083    -4.5424    17.2657 C         1 MOL       0.0000
    359 H102         0.3803    -5.8942    15.6580 H         1 MOL       0.0000
    360 H103        -0.6515    -5.1045    14.4567 H         1 MOL       0.0000
    361 H104        -2.8724    -4.3426    15.1305 H         1 MOL       0.0000
    362 H105         0.0495    -7.4968    13.8137 H         1 MOL       0.0000
    363 H106        -0.8575    -6.7921    17.8905 H         1 MOL       0.0000
    364 H107        -5.0613    -3.8708    18.1031 H         1 MOL       0.0000
    365 H108        -5.2392    -4.0476    16.3501 H         1 MOL       0.0000
    366 H109        -0.9643    -8.1051    15.1846 H         1 MOL       0.0000
    367 H110        -3.2949    -5.9987    19.0158 H         1 MOL       0.0000
    368 H111        -1.6545    -7.2997    13.8257 H         1 MOL       0.0000
    369 H112        -5.5284    -5.4584    17.3290 H         1 MOL       0.0000
    370 N20         -5.2527    -6.5350    14.4291 N         1 MOL       0.0000
    371 C123         9.6084    -9.0977    16.1058 C         1 MOL       0.0000
    372 C124         5.1010   -13.6941    25.3909 C         1 MOL       0.0000
    373 O77         -4.1271    -4.1421    13.4309 O         1 MOL       0.0000
    374 O78         -9.6812     5.9958    15.7299 O         1 MOL       0.0000
    375 O79         -8.4840   -13.5190    25.1204 O         1 MOL       0.0000
    376 O80          5.3307     5.2947    13.4793 O         1 MOL       0.0000
    377 F19          9.2511    -8.6719    17.3843 F         1 MOL       0.0000
    378 F20          3.8014   -12.9830    26.0061 F         1 MOL       0.0000
    379 F21          1.9075     5.5389    14.9630 F         1 MOL       0.0000
    380 F22          3.0394     4.1234    16.3540 F         1 MOL       0.0000
    381 F23          5.7544   -13.3212    23.8675 F         1 MOL       0.0000
    382 F24         -1.5330    -0.9376    25.2379 F         1 MOL       0.0000
    383 S7          -4.5356    -5.5592    13.1299 S         1 MOL       0.0000
    384 S8         -11.0440     6.3695    14.8928 S         1 MOL       0.0000
    385 Ti17        -9.3724    16.8428    11.1894 Ti        1 MOL       0.0000
    386 Ti18         1.4580    19.7240     1.8246 Ti        1 MOL       0.0000
    387 Ti19        -5.2758    12.9066     9.3694 Ti        1 MOL       0.0000
    388 Ti20        -3.7646    22.0687     3.5964 Ti        1 MOL       0.0000
    389 Ti21        -4.7631    23.7470     1.6920 Ti        1 MOL       0.0000
    390 Ti22        -3.3876    12.6522    11.3228 Ti        1 MOL       0.0000
    391 Ti23        -8.4232    15.1069     9.2979 Ti        1 MOL       0.0000
    392 Ti24        -0.5298    20.0265     3.6721 Ti        1 MOL       0.0000
    393 H113        -8.8706    20.7399    10.9699 H         1 MOL       0.0000
    394 H114         2.2668    15.8179     2.1453 H         1 MOL       0.0000
    395 H115       -13.3323    16.0861    10.8070 H         1 MOL       0.0000
    396 H116         4.8402    21.7283     2.0252 H         1 MOL       0.0000
    397 H117        -2.4119     8.6177    10.9369 H         1 MOL       0.0000
    398 H118        -8.8217    23.1571     2.0141 H         1 MOL       0.0000
    399 H119        -8.9037    15.0442    12.9139 H         1 MOL       0.0000
    400 H120        -0.4175    19.4813     0.1247 H         1 MOL       0.0000
    401 H121        -2.8776    11.9851     5.8117 H         1 MOL       0.0000
    402 H122        -5.4880    23.9057     7.2153 H         1 MOL       0.0000
    403 H123       -12.4959    18.4955     8.9420 H         1 MOL       0.0000
    404 H124         4.2128    17.6396     4.1306 H         1 MOL       0.0000
    405 H125       -10.1948    17.0481     5.6082 H         1 MOL       0.0000
    406 H126        -7.8632    25.5749     4.0452 H         1 MOL       0.0000
    407 H127        -4.3709    26.8498     2.5475 H         1 MOL       0.0000
    408 H128         2.1090    13.7991     3.3478 H         1 MOL       0.0000
    409 H129        -1.6719    21.7488     2.2578 H         1 MOL       0.0000
    410 H130        -6.3565    14.7550    10.6630 H         1 MOL       0.0000
    411 H131         0.8472    14.5871     9.7125 H         1 MOL       0.0000
    412 H132        -0.6339    14.1180    10.4598 H         1 MOL       0.0000
    413 H133         1.4213    19.0207     8.6136 H         1 MOL       0.0000
    414 H134         0.8516    19.3793     6.9950 H         1 MOL       0.0000
    415 H135         0.3584     9.6322     9.5224 H         1 MOL       0.0000
    416 H136        -0.9208    10.7328     9.9798 H         1 MOL       0.0000
    417 C125         2.0361    18.9827     4.6881 C         1 MOL       0.0000
    418 C126       -10.3330    17.1042     8.3424 C         1 MOL       0.0000
    419 C127        -2.6952    11.8959     8.4447 C         1 MOL       0.0000
    420 C128        -5.7007    24.0392     4.5557 C         1 MOL       0.0000
    421 C129         2.9321    18.3784     5.6833 C         1 MOL       0.0000
    422 C130       -11.2649    17.7292     7.3653 C         1 MOL       0.0000
    423 C131        -1.7550    11.2815     7.4975 C         1 MOL       0.0000
    424 C132        -6.5905    24.6860     5.5555 C         1 MOL       0.0000
    425 C133         2.6833    18.4533     7.0897 C         1 MOL       0.0000
    426 C134       -11.0485    17.6092     5.9773 C         1 MOL       0.0000
    427 C135        -0.6256    10.5212     7.9506 C         1 MOL       0.0000
    428 C136        -7.6852    25.4590     5.1106 C         1 MOL       0.0000
    429 C137        -6.3360    24.5152     6.9104 C         1 MOL       0.0000
    430 C138        -2.0028    11.4136     6.1136 C         1 MOL       0.0000
    431 C139         4.0658    17.6794     5.2076 C         1 MOL       0.0000
    432 C140       -12.3651    18.4216     7.8640 C         1 MOL       0.0000
    433 C141         2.2478    15.8970     0.0012 C         1 MOL       0.0000
    434 C142        -4.2219    27.6886     0.0262 C         1 MOL       0.0000
    435 C143         0.0973    14.5941    12.9702 C         1 MOL       0.0000
    436 C144       -13.2610    16.1365    12.9508 C         1 MOL       0.0000
    437 C145        -3.0178    19.7255     5.5610 C         1 MOL       0.0000
    438 C146        -7.7739    12.6311     7.4791 C         1 MOL       0.0000
    439 C147        -2.5230    10.2858    13.0730 C         1 MOL       0.0000
    440 C148        -4.3146    26.2551    -0.0113 C         1 MOL       0.0000
    441 C149        -1.2006    13.9773    13.0170 C         1 MOL       0.0000
    442 C150       -11.8587    16.5509    12.9753 C         1 MOL       0.0000
    443 C151         2.2872    15.2279     1.2309 C         1 MOL       0.0000
    444 C152        -8.8596    21.3283    11.8838 C         1 MOL       0.0000
    445 C153       -10.6124    22.4919     1.0191 C         1 MOL       0.0000
    446 C154       -13.8938    15.9068    11.7223 C         1 MOL       0.0000
    447 C155         0.7919    14.8624    11.7368 C         1 MOL       0.0000
    448 C156        -9.3232    22.9721     1.0683 C         1 MOL       0.0000
    449 C157        -2.3703     8.0905    11.8859 C         1 MOL       0.0000
    450 C158         2.3089    13.8268     1.3125 C         1 MOL       0.0000
    451 N21          2.3640    13.2279     2.5506 N         1 MOL       0.0000
    452 N22          0.2129    14.6795    10.4978 N         1 MOL       0.0000
    453 N23          1.6025    19.0996     7.6210 N         1 MOL       0.0000
    454 N24         -0.2946    10.3630     9.2680 N         1 MOL       0.0000
    455 O81          0.8598    19.3878     5.0539 O         1 MOL       0.0000
    456 O82         -9.5640    16.1533     7.9441 O         1 MOL       0.0000
    457 O83         -2.3138    12.0203     9.6658 O         1 MOL       0.0000
    458 O84         -5.7665    24.4689     3.3561 O         1 MOL       0.0000
    459 O85         -4.9302    23.0820     4.9422 O         1 MOL       0.0000
    460 O86         -3.8657    12.2643     8.0392 O         1 MOL       0.0000
    461 O87          2.4480    19.0635     3.4764 O         1 MOL       0.0000
    462 O88        -10.3750    17.5404     9.5421 O         1 MOL       0.0000
    463 O89         -0.2246    18.8086     2.4774 O         1 MOL       0.0000
    464 O90         -7.8708    16.6672    10.0424 O         1 MOL       0.0000
    465 O91          0.7142    21.0959     2.9273 O         1 MOL       0.0000
    466 O92         -9.6230    14.9425    10.5351 O         1 MOL       0.0000
    467 O93         -5.0164    11.7346    10.6298 O         1 MOL       0.0000
    468 O94         -3.2480    23.6300     2.8579 O         1 MOL       0.0000
    469 O95         -4.0625    13.9961    10.1657 O         1 MOL       0.0000
    470 O96         -4.9542    21.8729     2.3405 O         1 MOL       0.0000
    471 O97         -1.7967    19.5457     5.2067 O         1 MOL       0.0000
    472 O98         -8.4316    13.6661     7.8573 O         1 MOL       0.0000
    473 O99         -2.6452    10.8804    11.9319 O         1 MOL       0.0000
    474 O100        -4.3977    25.5536     1.0839 O         1 MOL       0.0000
    475 O101        -1.8431    13.6685    11.9268 O         1 MOL       0.0000
    476 O102        -6.6337    23.7179     1.0238 O         1 MOL       0.0000
    477 O103        -6.6121    12.3366     7.9369 O         1 MOL       0.0000
    478 O104        -3.7597    20.6464     5.0676 O         1 MOL       0.0000
    479 O105         2.8951    20.7431     1.0700 O         1 MOL       0.0000
    480 O106       -11.2592    16.7827    11.8578 O         1 MOL       0.0000
    481 O107         2.0995    17.9888     1.0994 O         1 MOL       0.0000
    482 O108        -8.9910    18.5650    11.9391 O         1 MOL       0.0000
    483 O109        -2.0328    21.2001     2.9784 O         1 MOL       0.0000
    484 O110        -6.7347    14.1963     9.9595 O         1 MOL       0.0000
    485 O111         0.4213    19.9749     0.0456 O         1 MOL       0.0000
    486 O112        -8.7813    16.0110    12.9739 O         1 MOL       0.0000
    487 H137        -2.8164    16.0750     8.4649 H         1 MOL       0.0000
    488 H138       -13.1204    25.2285     6.0493 H         1 MOL       0.0000
    489 H139        -2.0629    24.8276     5.5292 H         1 MOL       0.0000
    490 H140        -1.8199    17.6186     6.7485 H         1 MOL       0.0000
    491 H141        -6.4752    18.3394     8.3730 H         1 MOL       0.0000
    492 H142         5.6119    11.9599     6.9567 H         1 MOL       0.0000
    493 H143        -5.1434    16.4427     9.2367 H         1 MOL       0.0000
    494 H144        -5.4755    19.8824     6.6533 H         1 MOL       0.0000
    495 H145        -0.7264    23.0590     4.4096 H         1 MOL       0.0000
    496 H146         1.7299    22.9655     4.6949 H         1 MOL       0.0000
    497 C159        -3.5949    18.8311     6.5959 C         1 MOL       0.0000
    498 C160        -4.7035    17.1186     8.5049 C         1 MOL       0.0000
    499 C161        -0.2284    23.7973     5.0374 C         1 MOL       0.0000
    500 C162        -8.4306    11.6633     6.5678 C         1 MOL       0.0000
    501 C163        -4.9089    19.0436     7.0523 C         1 MOL       0.0000
    502 C164        -3.3899    16.9099     8.0652 C         1 MOL       0.0000
    503 C165        -0.9813    24.8047     5.6519 C         1 MOL       0.0000
    504 C166       -14.1976    25.2556     5.9006 C         1 MOL       0.0000
    505 C167         1.1605    23.7454     5.1979 C         1 MOL       0.0000
    506 C168         6.1756    11.1648     6.4749 C         1 MOL       0.0000
    507 C169        -2.8348    17.7651     7.1121 C         1 MOL       0.0000
    508 C170        -5.4606    18.1870     8.0070 C         1 MOL       0.0000
    509 N25         -1.0107    25.4504     1.2190 N         1 MOL       0.0000
    510 N26         -4.3915    17.3736    12.8139 N         1 MOL       0.0000
    511 C171        -1.1978    26.0899    -0.0068 C         1 MOL       0.0000
    512 C172        -5.0834    18.3698    12.1474 C         1 MOL       0.0000
    513 C173        -2.1182    17.3246    11.8148 C         1 MOL       0.0000
    514 C174        -1.4813    25.9789     2.5278 C         1 MOL       0.0000
    515 C175        -0.0744    24.4964     1.0299 C         1 MOL       0.0000
    516 C176        -3.3482    16.5171    12.2173 C         1 MOL       0.0000
    517 H147        -6.3865    19.9520    12.9974 H         1 MOL       0.0000
    518 H148        -4.9931    18.5260    11.0783 H         1 MOL       0.0000
    519 H149        -2.3797    18.1202    11.1052 H         1 MOL       0.0000
    520 H150        -1.8655    26.9964     2.3824 H         1 MOL       0.0000
    521 H151        -1.6494    17.7989    12.6845 H         1 MOL       0.0000
    522 H152        -2.1812    25.3041     2.9840 H         1 MOL       0.0000
    523 H153        -1.3872    16.6625    11.3338 H         1 MOL       0.0000
    524 H154        -3.7943    15.9966    11.3607 H         1 MOL       0.0000
    525 H155        -0.6463    26.0755     3.2224 H         1 MOL       0.0000
    526 H156         0.4255    23.9311     1.8052 H         1 MOL       0.0000
    527 H157        -3.1144    15.7571    12.9702 H         1 MOL       0.0000
    528 N27          6.9900    14.2939     0.2146 N         1 MOL       0.0000
    529 C177        -6.1423    14.9907     1.6718 C         1 MOL       0.0000
    530 C178         3.1844     8.8013    11.0093 C         1 MOL       0.0000
    531 O113         7.2769    14.0478     2.6926 O         1 MOL       0.0000
    532 O114         1.8827    26.5153     1.1654 O         1 MOL       0.0000
    533 O115        -5.2108    21.3949    10.9288 O         1 MOL       0.0000
    534 O116        -2.6964    20.5578    10.7544 O         1 MOL       0.0000
    535 F25         -6.4474    16.4919     2.0042 F         1 MOL       0.0000
    536 F26          4.0788     9.9115    11.7255 F         1 MOL       0.0000
    537 F27         -4.9706    15.4122     0.7357 F         1 MOL       0.0000
    538 F28         -6.4669    14.5347     3.4359 F         1 MOL       0.0000
    539 F29          2.1167     9.6474    10.8319 F         1 MOL       0.0000
    540 F30         -3.5745    23.1173     9.1566 F         1 MOL       0.0000
    541 S9           7.8126    13.4296     1.3806 S         1 MOL       0.0000
    542 S10         -3.9236    21.5655    11.5151 S         1 MOL       0.0000
    543 N28         -3.4653    16.0638     3.0924 N         1 MOL       0.0000
    544 N29         -5.3468    16.7684     4.0137 N         1 MOL       0.0000
    545 C179        -2.4824    15.7440     2.0237 C         1 MOL       0.0000
    546 C180        -4.5384    16.8533     2.9253 C         1 MOL       0.0000
    547 C181        -3.5508    15.4803     4.3494 C         1 MOL       0.0000
    548 C182        -2.6754    14.3944     1.3264 C         1 MOL       0.0000
    549 C183        -4.7229    15.9084     4.9108 C         1 MOL       0.0000
    550 C184        -6.7903    17.1366     4.1137 C         1 MOL       0.0000
    551 H158        -1.5017    15.7848     2.5060 H         1 MOL       0.0000
    552 H159        -2.5335    16.5745     1.3047 H         1 MOL       0.0000
    553 H160        -4.7544    17.3364     1.9785 H         1 MOL       0.0000
    554 H161        -1.8325    14.1822     0.6617 H         1 MOL       0.0000
    555 H162        -2.7395    14.8869     4.7385 H         1 MOL       0.0000
    556 H163        -6.9433    17.8082     4.9511 H         1 MOL       0.0000
    557 H164        -7.1212    17.6314     3.1981 H         1 MOL       0.0000
    558 H165        -2.8463    13.5739     2.0326 H         1 MOL       0.0000
    559 H166        -5.1769    15.6803     5.8638 H         1 MOL       0.0000
    560 H167        -3.5365    14.3793     0.6737 H         1 MOL       0.0000
    561 H168        -7.4104    16.2206     4.1770 H         1 MOL       0.0000
    562 N30         -7.1347    15.1440     1.2771 N         1 MOL       0.0000
    563 C185         7.7264    12.5813     2.9538 C         1 MOL       0.0000
    564 C186         3.2190     7.9849    12.2389 C         1 MOL       0.0000
    565 O117        -6.0091    17.5369     0.2789 O         1 MOL       0.0000
    566 O118       -11.5632    27.6748     2.5779 O         1 MOL       0.0000
    567 O119       -10.3660     8.1600    11.9684 O         1 MOL       0.0000
    568 O120         3.4487    26.9737     0.3273 O         1 MOL       0.0000
    569 F31          7.3691    13.0071     4.2323 F         1 MOL       0.0000
    570 F32          1.9194     8.6960    12.8541 F         1 MOL       0.0000
    571 F33          0.0255    27.2179     1.8110 F         1 MOL       0.0000
    572 F34          1.1574    25.8024     3.2020 F         1 MOL       0.0000
    573 F35          3.8724     8.3578    10.7155 F         1 MOL       0.0000
    574 F36         -3.4150    20.7414    12.0859 F         1 MOL       0.0000
    575 S11         -6.4176    16.1198    -0.0221 S         1 MOL       0.0000
    576 S12        -12.9260    28.0485     1.7408 S         1 MOL       0.0000
    577 Ti25       -14.0074     9.7768    24.2844 Ti        1 MOL       0.0000
    578 Ti26        -3.1770    12.6580    14.9196 Ti        1 MOL       0.0000
    579 Ti27        -9.9108     5.8406    22.4644 Ti        1 MOL       0.0000
    580 Ti28        -8.3996    15.0027    16.6914 Ti        1 MOL       0.0000
    581 Ti29        -9.3981    16.6810    14.7870 Ti        1 MOL       0.0000
    582 Ti30        -8.0226     5.5862    24.4178 Ti        1 MOL       0.0000
    583 Ti31       -13.0582     8.0409    22.3929 Ti        1 MOL       0.0000
    584 Ti32        -5.1648    12.9605    16.7671 Ti        1 MOL       0.0000
    585 H169       -13.5056    13.6739    24.0649 H         1 MOL       0.0000
    586 H170        -2.3682     8.7519    15.2403 H         1 MOL       0.0000
    587 H171       -17.9673     9.0201    23.9020 H         1 MOL       0.0000
    588 H172         0.2052    14.6623    15.1202 H         1 MOL       0.0000
    589 H173        -7.0469     1.5517    24.0319 H         1 MOL       0.0000
    590 H174       -13.4567    16.0911    15.1091 H         1 MOL       0.0000
    591 H175       -13.5387     7.9782    26.0089 H         1 MOL       0.0000
    592 H176        -5.0525    12.4153    13.2196 H         1 MOL       0.0000
    593 H177        -7.5126     4.9191    18.9067 H         1 MOL       0.0000
    594 H178       -10.1230    16.8397    20.3103 H         1 MOL       0.0000
    595 H179       -17.1309    11.4295    22.0370 H         1 MOL       0.0000
    596 H180        -0.4222    10.5736    17.2256 H         1 MOL       0.0000
    597 H181       -14.8298     9.9821    18.7032 H         1 MOL       0.0000
    598 H182       -12.4982    18.5089    17.1402 H         1 MOL       0.0000
    599 H183        -9.0059    19.7838    15.6425 H         1 MOL       0.0000
    600 H184        -2.5260     6.7331    16.4428 H         1 MOL       0.0000
    601 H185        -6.3069    14.6828    15.3528 H         1 MOL       0.0000
    602 H186       -10.9915     7.6890    23.7580 H         1 MOL       0.0000
    603 H187        -3.7878     7.5211    22.8075 H         1 MOL       0.0000
    604 H188        -5.2689     7.0520    23.5548 H         1 MOL       0.0000
    605 H189        -3.2137    11.9547    21.7085 H         1 MOL       0.0000
    606 H190        -3.7834    12.3133    20.0900 H         1 MOL       0.0000
    607 H191        -4.2766     2.5662    22.6174 H         1 MOL       0.0000
    608 H192        -5.5558     3.6668    23.0748 H         1 MOL       0.0000
    609 C187        -2.5989    11.9167    17.7831 C         1 MOL       0.0000
    610 C188       -14.9680    10.0381    21.4374 C         1 MOL       0.0000
    611 C189        -7.3302     4.8299    21.5397 C         1 MOL       0.0000
    612 C190       -10.3357    16.9732    17.6507 C         1 MOL       0.0000
    613 C191        -1.7029    11.3124    18.7783 C         1 MOL       0.0000
    614 C192       -15.8999    10.6632    20.4603 C         1 MOL       0.0000
    615 C193        -6.3900     4.2155    20.5925 C         1 MOL       0.0000
    616 C194       -11.2255    17.6200    18.6505 C         1 MOL       0.0000
    617 C195        -1.9517    11.3873    20.1847 C         1 MOL       0.0000
    618 C196       -15.6835    10.5432    19.0723 C         1 MOL       0.0000
    619 C197        -5.2606     3.4552    21.0456 C         1 MOL       0.0000
    620 C198       -12.3202    18.3930    18.2056 C         1 MOL       0.0000
    621 C199       -10.9710    17.4492    20.0054 C         1 MOL       0.0000
    622 C200        -6.6378     4.3476    19.2086 C         1 MOL       0.0000
    623 C201        -0.5692    10.6134    18.3026 C         1 MOL       0.0000
    624 C202       -17.0001    11.3556    20.9590 C         1 MOL       0.0000
    625 C203        -2.3872     8.8310    13.0962 C         1 MOL       0.0000
    626 C204        -8.8569    20.6226    13.1212 C         1 MOL       0.0000
    627 C205        -4.5377     7.5281    26.0652 C         1 MOL       0.0000
    628 C206       -17.8960     9.0705    26.0458 C         1 MOL       0.0000
    629 C207        -7.6528    12.6595    18.6560 C         1 MOL       0.0000
    630 C208       -12.4089     5.5651    20.5741 C         1 MOL       0.0000
    631 C209        -7.1580     3.2199    26.1680 C         1 MOL       0.0000
    632 C210        -8.9496    19.1891    13.0837 C         1 MOL       0.0000
    633 C211        -5.8355     6.9113    26.1120 C         1 MOL       0.0000
    634 C212       -16.4937     9.4849    26.0703 C         1 MOL       0.0000
    635 C213        -2.3478     8.1619    14.3259 C         1 MOL       0.0000
    636 C214       -13.4946    14.2623    24.9788 C         1 MOL       0.0000
    637 C215       -15.2474    15.4259    14.1141 C         1 MOL       0.0000
    638 C216       -18.5288     8.8408    24.8173 C         1 MOL       0.0000
    639 C217        -3.8431     7.7964    24.8318 C         1 MOL       0.0000
    640 C218       -13.9582    15.9061    14.1633 C         1 MOL       0.0000
    641 C219        -7.0053     1.0245    24.9809 C         1 MOL       0.0000
    642 C220        -2.3261     6.7608    14.4075 C         1 MOL       0.0000
    643 N31         -2.2710     6.1619    15.6456 N         1 MOL       0.0000
    644 N32         -4.4221     7.6135    23.5928 N         1 MOL       0.0000
    645 N33         -3.0325    12.0336    20.7160 N         1 MOL       0.0000
    646 N34         -4.9296     3.2970    22.3630 N         1 MOL       0.0000
    647 O121        -3.7752    12.3218    18.1489 O         1 MOL       0.0000
    648 O122       -14.1990     9.0873    21.0391 O         1 MOL       0.0000
    649 O123        -6.9488     4.9543    22.7608 O         1 MOL       0.0000
    650 O124       -10.4015    17.4029    16.4512 O         1 MOL       0.0000
    651 O125        -9.5652    16.0160    18.0372 O         1 MOL       0.0000
    652 O126        -8.5007     5.1983    21.1342 O         1 MOL       0.0000
    653 O127        -2.1870    11.9975    16.5714 O         1 MOL       0.0000
    654 O128       -15.0100    10.4744    22.6371 O         1 MOL       0.0000
    655 O129        -4.8596    11.7426    15.5724 O         1 MOL       0.0000
    656 O130       -12.5058     9.6012    23.1374 O         1 MOL       0.0000
    657 O131        -3.9208    14.0299    16.0223 O         1 MOL       0.0000
    658 O132       -14.2580     7.8765    23.6301 O         1 MOL       0.0000
    659 O133        -9.6515     4.6686    23.7248 O         1 MOL       0.0000
    660 O134        -7.8830    16.5640    15.9529 O         1 MOL       0.0000
    661 O135        -8.6975     6.9301    23.2607 O         1 MOL       0.0000
    662 O136        -9.5892    14.8069    15.4355 O         1 MOL       0.0000
    663 O137        -6.4317    12.4797    18.3017 O         1 MOL       0.0000
    664 O138       -13.0666     6.6001    20.9523 O         1 MOL       0.0000
    665 O139        -7.2802     3.8144    25.0269 O         1 MOL       0.0000
    666 O140        -9.0327    18.4876    14.1789 O         1 MOL       0.0000
    667 O141        -6.4781     6.6025    25.0218 O         1 MOL       0.0000
    668 O142       -11.2687    16.6519    14.1188 O         1 MOL       0.0000
    669 O143       -11.2471     5.2706    21.0319 O         1 MOL       0.0000
    670 O144        -8.3947    13.5804    18.1626 O         1 MOL       0.0000
    671 O145        -1.7399    13.6771    14.1650 O         1 MOL       0.0000
    672 O146       -15.8942     9.7167    24.9528 O         1 MOL       0.0000
    673 O147        -2.5355    10.9228    14.1944 O         1 MOL       0.0000
    674 O148       -13.6260    11.4990    25.0341 O         1 MOL       0.0000
    675 O149        -6.6678    14.1341    16.0734 O         1 MOL       0.0000
    676 O150       -11.3697     7.1303    23.0545 O         1 MOL       0.0000
    677 O151        -4.2137    12.9089    13.1406 O         1 MOL       0.0000
    678 O152       -13.4163     8.9450    26.0689 O         1 MOL       0.0000
    679 H193        -7.4514     9.0090    21.5599 H         1 MOL       0.0000
    680 H194       -17.7554    18.1625    19.1443 H         1 MOL       0.0000
    681 H195        -6.6979    17.7616    18.6242 H         1 MOL       0.0000
    682 H196        -6.4549    10.5526    19.8435 H         1 MOL       0.0000
    683 H197       -11.1102    11.2734    21.4680 H         1 MOL       0.0000
    684 H198         0.9769     4.8939    20.0517 H         1 MOL       0.0000
    685 H199        -9.7784     9.3767    22.3317 H         1 MOL       0.0000
    686 H200       -10.1105    12.8164    19.7483 H         1 MOL       0.0000
    687 H201        -5.3614    15.9930    17.5046 H         1 MOL       0.0000
    688 H202        -2.9051    15.8995    17.7899 H         1 MOL       0.0000
    689 C221        -8.2299    11.7651    19.6909 C         1 MOL       0.0000
    690 C222        -9.3385    10.0526    21.5999 C         1 MOL       0.0000
    691 C223        -4.8634    16.7313    18.1324 C         1 MOL       0.0000
    692 C224       -13.0656     4.5973    19.6628 C         1 MOL       0.0000
    693 C225        -9.5439    11.9776    20.1473 C         1 MOL       0.0000
    694 C226        -8.0249     9.8439    21.1602 C         1 MOL       0.0000
    695 C227        -5.6163    17.7387    18.7469 C         1 MOL       0.0000
    696 C228       -18.8326    18.1896    18.9956 C         1 MOL       0.0000
    697 C229        -3.4745    16.6794    18.2929 C         1 MOL       0.0000
    698 C230         1.5406     4.0988    19.5699 C         1 MOL       0.0000
    699 C231        -7.4698    10.6991    20.2071 C         1 MOL       0.0000
    700 C232       -10.0956    11.1210    21.1020 C         1 MOL       0.0000
    701 N35         -5.6457    18.3844    14.3140 N         1 MOL       0.0000
    702 N36         -9.0265    10.3076    25.9089 N         1 MOL       0.0000
    703 C233        -5.8328    19.0239    13.0882 C         1 MOL       0.0000
    704 C234        -9.7184    11.3038    25.2424 C         1 MOL       0.0000
    705 C235        -6.7532    10.2586    24.9098 C         1 MOL       0.0000
    706 C236        -6.1163    18.9129    15.6228 C         1 MOL       0.0000
    707 C237        -4.7094    17.4304    14.1249 C         1 MOL       0.0000
    708 C238        -7.9832     9.4511    25.3123 C         1 MOL       0.0000
    709 H203       -11.0215    12.8860    26.0924 H         1 MOL       0.0000
    710 H204        -9.6281    11.4600    24.1733 H         1 MOL       0.0000
    711 H205        -7.0147    11.0542    24.2002 H         1 MOL       0.0000
    712 H206        -6.5005    19.9304    15.4774 H         1 MOL       0.0000
    713 H207        -6.2844    10.7329    25.7795 H         1 MOL       0.0000
    714 H208        -6.8162    18.2381    16.0790 H         1 MOL       0.0000
    715 H209        -6.0222     9.5965    24.4288 H         1 MOL       0.0000
    716 H210        -8.4293     8.9306    24.4557 H         1 MOL       0.0000
    717 H211        -5.2813    19.0095    16.3174 H         1 MOL       0.0000
    718 H212        -4.2095    16.8651    14.9002 H         1 MOL       0.0000
    719 H213        -7.7494     8.6911    26.0652 H         1 MOL       0.0000
    720 N37          2.3550     7.2279    13.3096 N         1 MOL       0.0000
    721 C239       -10.7773     7.9247    14.7668 C         1 MOL       0.0000
    722 C240        -1.4506     1.7353    24.1043 C         1 MOL       0.0000
    723 O153         2.6419     6.9818    15.7876 O         1 MOL       0.0000
    724 O154        -2.7523    19.4493    14.2604 O         1 MOL       0.0000
    725 O155        -9.8458    14.3289    24.0238 O         1 MOL       0.0000
    726 O156        -7.3314    13.4918    23.8494 O         1 MOL       0.0000
    727 F37        -11.0824     9.4259    15.0992 F         1 MOL       0.0000
    728 F38         -0.5562     2.8455    24.8205 F         1 MOL       0.0000
    729 F39         -9.6056     8.3462    13.8307 F         1 MOL       0.0000
    730 F40        -11.1019     7.4687    16.5309 F         1 MOL       0.0000
    731 F41         -2.5183     2.5814    23.9269 F         1 MOL       0.0000
    732 F42         -8.2095    16.0513    22.2516 F         1 MOL       0.0000
    733 S13          3.1776     6.3636    14.4756 S         1 MOL       0.0000
    734 S14         -8.5586    14.4995    24.6101 S         1 MOL       0.0000
    735 N38         -8.1003     8.9978    16.1874 N         1 MOL       0.0000
    736 N39         -9.9818     9.7024    17.1087 N         1 MOL       0.0000
    737 C241        -7.1174     8.6780    15.1187 C         1 MOL       0.0000
    738 C242        -9.1734     9.7873    16.0203 C         1 MOL       0.0000
    739 C243        -8.1858     8.4143    17.4444 C         1 MOL       0.0000
    740 C244        -7.3104     7.3284    14.4214 C         1 MOL       0.0000
    741 C245        -9.3579     8.8424    18.0058 C         1 MOL       0.0000
    742 C246       -11.4253    10.0706    17.2087 C         1 MOL       0.0000
    743 H214        -6.1367     8.7188    15.6010 H         1 MOL       0.0000
    744 H215        -7.1685     9.5085    14.3997 H         1 MOL       0.0000
    745 H216        -9.3894    10.2704    15.0735 H         1 MOL       0.0000
    746 H217        -6.4675     7.1162    13.7567 H         1 MOL       0.0000
    747 H218        -7.3745     7.8209    17.8335 H         1 MOL       0.0000
    748 H219       -11.5783    10.7422    18.0461 H         1 MOL       0.0000
    749 H220       -11.7562    10.5654    16.2931 H         1 MOL       0.0000
    750 H221        -7.4813     6.5079    15.1276 H         1 MOL       0.0000
    751 H222        -9.8119     8.6143    18.9588 H         1 MOL       0.0000
    752 H223        -8.1715     7.3133    13.7687 H         1 MOL       0.0000
    753 H224       -12.0454     9.1546    17.2720 H         1 MOL       0.0000
    754 N40        -11.7697     8.0780    14.3721 N         1 MOL       0.0000
    755 C247         3.0914     5.5153    16.0488 C         1 MOL       0.0000
    756 C248        -1.4160     0.9189    25.3339 C         1 MOL       0.0000
    757 O157       -10.6441    10.4709    13.3739 O         1 MOL       0.0000
    758 O158       -16.1982    20.6088    15.6729 O         1 MOL       0.0000
    759 O159       -15.0010     1.0940    25.0634 O         1 MOL       0.0000
    760 O160        -1.1863    19.9077    13.4223 O         1 MOL       0.0000
    761 F43          2.7341     5.9411    17.3273 F         1 MOL       0.0000
    762 F44         -2.7156     1.6300    25.9491 F         1 MOL       0.0000
    763 F45         -4.6095    20.1519    14.9060 F         1 MOL       0.0000
    764 F46         -3.4776    18.7364    16.2970 F         1 MOL       0.0000
    765 F47         -0.7626     1.2918    23.8105 F         1 MOL       0.0000
    766 F48         -8.0500    13.6754    25.1809 F         1 MOL       0.0000
    767 S15        -11.0526     9.0538    13.0729 S         1 MOL       0.0000
    768 S16        -17.5610    20.9825    14.8358 S         1 MOL       0.0000
    769 Ti33        13.1446     1.6728    11.3364 Ti        1 MOL       0.0000
    770 Ti34        23.9750     4.5540     1.9716 Ti        1 MOL       0.0000
    771 Ti35        17.2413    -2.2634     9.5164 Ti        1 MOL       0.0000
    772 Ti36        18.7524     6.8987     3.7434 Ti        1 MOL       0.0000
    773 Ti37        17.7539     8.5770     1.8390 Ti        1 MOL       0.0000
    774 Ti38        19.1295    -2.5178    11.4698 Ti        1 MOL       0.0000
    775 Ti39        14.0938    -0.0631     9.4449 Ti        1 MOL       0.0000
    776 Ti40        21.9872     4.8565     3.8191 Ti        1 MOL       0.0000
    777 H225        13.6464     5.5698    11.1169 H         1 MOL       0.0000
    778 H226        24.7838     0.6479     2.2923 H         1 MOL       0.0000
    779 H227         9.1847     0.9161    10.9540 H         1 MOL       0.0000
    780 H228        27.3572     6.5583     2.1722 H         1 MOL       0.0000
    781 H229        20.1051    -6.5523    11.0839 H         1 MOL       0.0000
    782 H230        13.6953     7.9871     2.1610 H         1 MOL       0.0000
    783 H231        13.6133    -0.1258    13.0609 H         1 MOL       0.0000
    784 H232        22.0995     4.3113     0.2717 H         1 MOL       0.0000
    785 H233        19.6394    -3.1849     5.9587 H         1 MOL       0.0000
    786 H234        17.0290     8.7357     7.3624 H         1 MOL       0.0000
    787 H235        10.0211     3.3255     9.0890 H         1 MOL       0.0000
    788 H236        26.7298     2.4697     4.2776 H         1 MOL       0.0000
    789 H237        12.3222     1.8781     5.7552 H         1 MOL       0.0000
    790 H238        14.6538    10.4049     4.1922 H         1 MOL       0.0000
    791 H239        18.1461    11.6798     2.6945 H         1 MOL       0.0000
    792 H240        24.6260    -1.3709     3.4948 H         1 MOL       0.0000
    793 H241        20.8451     6.5788     2.4048 H         1 MOL       0.0000
    794 H242        16.1605    -0.4150    10.8100 H         1 MOL       0.0000
    795 H243        23.3642    -0.5829     9.8595 H         1 MOL       0.0000
    796 H244        21.8831    -1.0520    10.6068 H         1 MOL       0.0000
    797 H245        23.9383     3.8507     8.7606 H         1 MOL       0.0000
    798 H246        23.3686     4.2093     7.1420 H         1 MOL       0.0000
    799 H247        22.8754    -5.5378     9.6694 H         1 MOL       0.0000
    800 H248        21.5962    -4.4372    10.1268 H         1 MOL       0.0000
    801 C249        24.5531     3.8127     4.8351 C         1 MOL       0.0000
    802 C250        12.1840     1.9341     8.4894 C         1 MOL       0.0000
    803 C251        19.8218    -3.2741     8.5917 C         1 MOL       0.0000
    804 C252        16.8163     8.8692     4.7027 C         1 MOL       0.0000
    805 C253        25.4491     3.2084     5.8303 C         1 MOL       0.0000
    806 C254        11.2521     2.5592     7.5123 C         1 MOL       0.0000
    807 C255        20.7620    -3.8885     7.6445 C         1 MOL       0.0000
    808 C256        15.9265     9.5160     5.7025 C         1 MOL       0.0000
    809 C257        25.2003     3.2833     7.2367 C         1 MOL       0.0000
    810 C258        11.4685     2.4392     6.1243 C         1 MOL       0.0000
    811 C259        21.8914    -4.6488     8.0976 C         1 MOL       0.0000
    812 C260        14.8318    10.2890     5.2576 C         1 MOL       0.0000
    813 C261        16.1810     9.3453     7.0574 C         1 MOL       0.0000
    814 C262        20.5142    -3.7563     6.2606 C         1 MOL       0.0000
    815 C263        26.5828     2.5094     5.3546 C         1 MOL       0.0000
    816 C264        10.1519     3.2516     8.0110 C         1 MOL       0.0000
    817 C265        24.7648     0.7270     0.1482 C         1 MOL       0.0000
    818 C266        18.2951    12.5186     0.1732 C         1 MOL       0.0000
    819 C267        22.6143    -0.5759    13.1172 C         1 MOL       0.0000
    820 C268         9.2560     0.9665    13.0978 C         1 MOL       0.0000
    821 C269        19.4992     4.5555     5.7080 C         1 MOL       0.0000
    822 C270        14.7431    -2.5389     7.6261 C         1 MOL       0.0000
    823 C271        19.9940    -4.8842    13.2200 C         1 MOL       0.0000
    824 C272        18.2024    11.0851     0.1357 C         1 MOL       0.0000
    825 C273        21.3164    -1.1927    13.1640 C         1 MOL       0.0000
    826 C274        10.6583     1.3809    13.1223 C         1 MOL       0.0000
    827 C275        24.8042     0.0579     1.3779 C         1 MOL       0.0000
    828 C276        13.6574     6.1583    12.0308 C         1 MOL       0.0000
    829 C277        11.9046     7.3219     1.1661 C         1 MOL       0.0000
    830 C278         8.6232     0.7368    11.8693 C         1 MOL       0.0000
    831 C279        23.3089    -0.3076    11.8838 C         1 MOL       0.0000
    832 C280        13.1938     7.8021     1.2153 C         1 MOL       0.0000
    833 C281        20.1467    -7.0795    12.0329 C         1 MOL       0.0000
    834 C282        24.8259    -1.3432     1.4595 C         1 MOL       0.0000
    835 N41         24.8809    -1.9421     2.6976 N         1 MOL       0.0000
    836 N42         22.7299    -0.4905    10.6448 N         1 MOL       0.0000
    837 N43         24.1195     3.9296     7.7680 N         1 MOL       0.0000
    838 N44         22.2224    -4.8070     9.4150 N         1 MOL       0.0000
    839 O161        23.3768     4.2178     5.2009 O         1 MOL       0.0000
    840 O162        12.9530     0.9833     8.0911 O         1 MOL       0.0000
    841 O163        20.2032    -3.1497     9.8128 O         1 MOL       0.0000
    842 O164        16.7505     9.2989     3.5031 O         1 MOL       0.0000
    843 O165        17.5868     7.9120     5.0892 O         1 MOL       0.0000
    844 O166        18.6513    -2.9057     8.1862 O         1 MOL       0.0000
    845 O167        24.9650     3.8935     3.6234 O         1 MOL       0.0000
    846 O168        12.1420     2.3704     9.6891 O         1 MOL       0.0000
    847 O169        22.2924     3.6386     2.6244 O         1 MOL       0.0000
    848 O170        14.6462     1.4972    10.1894 O         1 MOL       0.0000
    849 O171        23.2312     5.9259     3.0743 O         1 MOL       0.0000
    850 O172        12.8940    -0.2275    10.6821 O         1 MOL       0.0000
    851 O173        17.5006    -3.4354    10.7768 O         1 MOL       0.0000
    852 O174        19.2690     8.4600     3.0049 O         1 MOL       0.0000
    853 O175        18.4545    -1.1739    10.3127 O         1 MOL       0.0000
    854 O176        17.5628     6.7029     2.4875 O         1 MOL       0.0000
    855 O177        20.7203     4.3756     5.3537 O         1 MOL       0.0000
    856 O178        14.0854    -1.5039     8.0043 O         1 MOL       0.0000
    857 O179        19.8718    -4.2896    12.0789 O         1 MOL       0.0000
    858 O180        18.1193    10.3836     1.2309 O         1 MOL       0.0000
    859 O181        20.6739    -1.5015    12.0738 O         1 MOL       0.0000
    860 O182        15.8833     8.5479     1.1708 O         1 MOL       0.0000
    861 O183        15.9049    -2.8334     8.0839 O         1 MOL       0.0000
    862 O184        18.7573     5.4764     5.2146 O         1 MOL       0.0000
    863 O185        25.4121     5.5731     1.2170 O         1 MOL       0.0000
    864 O186        11.2578     1.6127    12.0048 O         1 MOL       0.0000
    865 O187        24.6166     2.8188     1.2464 O         1 MOL       0.0000
    866 O188        13.5260     3.3950    12.0861 O         1 MOL       0.0000
    867 O189        20.4842     6.0301     3.1254 O         1 MOL       0.0000
    868 O190        15.7823    -0.9737    10.1065 O         1 MOL       0.0000
    869 O191        22.9383     4.8049     0.1926 O         1 MOL       0.0000
    870 O192        13.7357     0.8410    13.1209 O         1 MOL       0.0000
    871 H249        19.7006     0.9050     8.6119 H         1 MOL       0.0000
    872 H250         9.3966    10.0585     6.1963 H         1 MOL       0.0000
    873 H251        20.4541     9.6576     5.6762 H         1 MOL       0.0000
    874 H252        20.6971     2.4486     6.8955 H         1 MOL       0.0000
    875 H253        16.0418     3.1694     8.5200 H         1 MOL       0.0000
    876 H254        28.1289    -3.2101     7.1037 H         1 MOL       0.0000
    877 H255        17.3736     1.2727     9.3837 H         1 MOL       0.0000
    878 H256        17.0415     4.7124     6.8003 H         1 MOL       0.0000
    879 H257        21.7906     7.8890     4.5566 H         1 MOL       0.0000
    880 H258        24.2469     7.7955     4.8419 H         1 MOL       0.0000
    881 C283        18.9221     3.6611     6.7429 C         1 MOL       0.0000
    882 C284        17.8135     1.9486     8.6519 C         1 MOL       0.0000
    883 C285        22.2886     8.6273     5.1844 C         1 MOL       0.0000
    884 C286        14.0864    -3.5067     6.7148 C         1 MOL       0.0000
    885 C287        17.6081     3.8736     7.1993 C         1 MOL       0.0000
    886 C288        19.1271     1.7399     8.2122 C         1 MOL       0.0000
    887 C289        21.5357     9.6347     5.7989 C         1 MOL       0.0000
    888 C290         8.3194    10.0856     6.0476 C         1 MOL       0.0000
    889 C291        23.6775     8.5754     5.3449 C         1 MOL       0.0000
    890 C292        28.6926    -4.0052     6.6219 C         1 MOL       0.0000
    891 C293        19.6822     2.5951     7.2591 C         1 MOL       0.0000
    892 C294        17.0564     3.0170     8.1540 C         1 MOL       0.0000
    893 N45         21.5063    10.2804     1.3660 N         1 MOL       0.0000
    894 N46         18.1255     2.2036    12.9609 N         1 MOL       0.0000
    895 C295        21.3192    10.9199     0.1402 C         1 MOL       0.0000
    896 C296        17.4336     3.1998    12.2944 C         1 MOL       0.0000
    897 C297        20.3988     2.1546    11.9618 C         1 MOL       0.0000
    898 C298        21.0357    10.8089     2.6748 C         1 MOL       0.0000
    899 C299        22.4426     9.3264     1.1769 C         1 MOL       0.0000
    900 C300        19.1688     1.3471    12.3643 C         1 MOL       0.0000
    901 H259        16.1305     4.7820    13.1444 H         1 MOL       0.0000
    902 H260        17.5239     3.3560    11.2253 H         1 MOL       0.0000
    903 H261        20.1373     2.9502    11.2522 H         1 MOL       0.0000
    904 H262        20.6515    11.8264     2.5294 H         1 MOL       0.0000
    905 H263        20.8676     2.6289    12.8315 H         1 MOL       0.0000
    906 H264        20.3358    10.1341     3.1310 H         1 MOL       0.0000
    907 H265        21.1298     1.4925    11.4808 H         1 MOL       0.0000
    908 H266        18.7227     0.8266    11.5077 H         1 MOL       0.0000
    909 H267        21.8707    10.9055     3.3694 H         1 MOL       0.0000
    910 H268        22.9425     8.7611     1.9522 H         1 MOL       0.0000
    911 H269        19.4026     0.5871    13.1172 H         1 MOL       0.0000
    912 N47         29.5070    -0.8761     0.3616 N         1 MOL       0.0000
    913 C301        16.3747    -0.1793     1.8188 C         1 MOL       0.0000
    914 C302        25.7014    -6.3687    11.1563 C         1 MOL       0.0000
    915 O193        29.7939    -1.1222     2.8396 O         1 MOL       0.0000
    916 O194        24.3997    11.3453     1.3124 O         1 MOL       0.0000
    917 O195        17.3062     6.2249    11.0758 O         1 MOL       0.0000
    918 O196        19.8206     5.3878    10.9014 O         1 MOL       0.0000
    919 F49         16.0696     1.3219     2.1512 F         1 MOL       0.0000
    920 F50         26.5958    -5.2585    11.8725 F         1 MOL       0.0000
    921 F51         17.5464     0.2422     0.8827 F         1 MOL       0.0000
    922 F52         16.0501    -0.6353     3.5829 F         1 MOL       0.0000
    923 F53         24.6337    -5.5226    10.9789 F         1 MOL       0.0000
    924 F54         18.9425     7.9473     9.3036 F         1 MOL       0.0000
    925 S17         30.3296    -1.7404     1.5276 S         1 MOL       0.0000
    926 S18         18.5934     6.3955    11.6621 S         1 MOL       0.0000
    927 N48         19.0517     0.8938     3.2394 N         1 MOL       0.0000
    928 N49         17.1702     1.5984     4.1607 N         1 MOL       0.0000
    929 C303        20.0346     0.5740     2.1707 C         1 MOL       0.0000
    930 C304        17.9786     1.6833     3.0723 C         1 MOL       0.0000
    931 C305        18.9662     0.3103     4.4964 C         1 MOL       0.0000
    932 C306        19.8416    -0.7756     1.4734 C         1 MOL       0.0000
    933 C307        17.7941     0.7384     5.0578 C         1 MOL       0.0000
    934 C308        15.7267     1.9666     4.2607 C         1 MOL       0.0000
    935 H270        21.0153     0.6148     2.6530 H         1 MOL       0.0000
    936 H271        19.9835     1.4045     1.4517 H         1 MOL       0.0000
    937 H272        17.7626     2.1664     2.1255 H         1 MOL       0.0000
    938 H273        20.6845    -0.9878     0.8087 H         1 MOL       0.0000
    939 H274        19.7775    -0.2831     4.8855 H         1 MOL       0.0000
    940 H275        15.5737     2.6382     5.0981 H         1 MOL       0.0000
    941 H276        15.3958     2.4614     3.3451 H         1 MOL       0.0000
    942 H277        19.6707    -1.5961     2.1796 H         1 MOL       0.0000
    943 H278        17.3401     0.5103     6.0108 H         1 MOL       0.0000
    944 H279        18.9805    -0.7907     0.8207 H         1 MOL       0.0000
    945 H280        15.1066     1.0506     4.3240 H         1 MOL       0.0000
    946 N50         15.3823    -0.0260     1.4241 N         1 MOL       0.0000
    947 C309        30.2434    -2.5887     3.1008 C         1 MOL       0.0000
    948 C310        25.7360    -7.1851    12.3859 C         1 MOL       0.0000
    949 O197        16.5079     2.3669     0.4259 O         1 MOL       0.0000
    950 O198        10.9538    12.5048     2.7249 O         1 MOL       0.0000
    951 O199        12.1510    -7.0100    12.1154 O         1 MOL       0.0000
    952 O200        25.9657    11.8037     0.4743 O         1 MOL       0.0000
    953 F55         29.8861    -2.1629     4.3793 F         1 MOL       0.0000
    954 F56         24.4364    -6.4740    13.0011 F         1 MOL       0.0000
    955 F57         22.5425    12.0479     1.9580 F         1 MOL       0.0000
    956 F58         23.6744    10.6324     3.3490 F         1 MOL       0.0000
    957 F59         26.3894    -6.8122    10.8625 F         1 MOL       0.0000
    958 F60         19.1020     5.5714    12.2329 F         1 MOL       0.0000
    959 S19         16.0994     0.9498     0.1249 S         1 MOL       0.0000
    960 S20          9.5910    12.8785     1.8878 S         1 MOL       0.0000
    961 Ti41         8.5096    -5.3932    24.4314 Ti        1 MOL       0.0000
    962 Ti42        19.3400    -2.5120    15.0666 Ti        1 MOL       0.0000
    963 Ti43        12.6063    -9.3294    22.6114 Ti        1 MOL       0.0000
    964 Ti44        14.1174    -0.1673    16.8384 Ti        1 MOL       0.0000
    965 Ti45        13.1189     1.5110    14.9340 Ti        1 MOL       0.0000
    966 Ti46        14.4945    -9.5838    24.5648 Ti        1 MOL       0.0000
    967 Ti47         9.4588    -7.1291    22.5399 Ti        1 MOL       0.0000
    968 Ti48        17.3522    -2.2095    16.9140 Ti        1 MOL       0.0000
    969 H281         9.0114    -1.4961    24.2119 H         1 MOL       0.0000
    970 H282        20.1488    -6.4181    15.3873 H         1 MOL       0.0000
    971 H283         4.5497    -6.1499    24.0490 H         1 MOL       0.0000
    972 H284        22.7222    -0.5077    15.2672 H         1 MOL       0.0000
    973 H285        15.4701   -13.6183    24.1789 H         1 MOL       0.0000
    974 H286         9.0603     0.9211    15.2561 H         1 MOL       0.0000
    975 H287         8.9783    -7.1918    26.1559 H         1 MOL       0.0000
    976 H288        17.4645    -2.7547    13.3666 H         1 MOL       0.0000
    977 H289        15.0044   -10.2509    19.0537 H         1 MOL       0.0000
    978 H290        12.3940     1.6697    20.4573 H         1 MOL       0.0000
    979 H291         5.3861    -3.7405    22.1840 H         1 MOL       0.0000
    980 H292        22.0948    -4.5963    17.3726 H         1 MOL       0.0000
    981 H293         7.6872    -5.1879    18.8502 H         1 MOL       0.0000
    982 H294        10.0188     3.3389    17.2872 H         1 MOL       0.0000
    983 H295        13.5111     4.6138    15.7895 H         1 MOL       0.0000
    984 H296        19.9910    -8.4369    16.5898 H         1 MOL       0.0000
    985 H297        16.2101    -0.4872    15.4998 H         1 MOL       0.0000
    986 H298        11.5255    -7.4810    23.9050 H         1 MOL       0.0000
    987 H299        18.7292    -7.6489    22.9545 H         1 MOL       0.0000
    988 H300        17.2481    -8.1180    23.7018 H         1 MOL       0.0000
    989 H301        19.3033    -3.2153    21.8555 H         1 MOL       0.0000
    990 H302        18.7336    -2.8567    20.2370 H         1 MOL       0.0000
    991 H303        18.2404   -12.6038    22.7644 H         1 MOL       0.0000
    992 H304        16.9612   -11.5032    23.2218 H         1 MOL       0.0000
    993 C311        19.9181    -3.2533    17.9301 C         1 MOL       0.0000
    994 C312         7.5490    -5.1319    21.5844 C         1 MOL       0.0000
    995 C313        15.1867   -10.3401    21.6867 C         1 MOL       0.0000
    996 C314        12.1813     1.8032    17.7978 C         1 MOL       0.0000
    997 C315        20.8141    -3.8576    18.9253 C         1 MOL       0.0000
    998 C316         6.6171    -4.5068    20.6073 C         1 MOL       0.0000
    999 C317        16.1270   -10.9545    20.7395 C         1 MOL       0.0000
   1000 C318        11.2915     2.4500    18.7975 C         1 MOL       0.0000
   1001 C319        20.5653    -3.7827    20.3317 C         1 MOL       0.0000
   1002 C320         6.8335    -4.6268    19.2193 C         1 MOL       0.0000
   1003 C321        17.2564   -11.7148    21.1926 C         1 MOL       0.0000
   1004 C322        10.1968     3.2230    18.3526 C         1 MOL       0.0000
   1005 C323        11.5460     2.2792    20.1524 C         1 MOL       0.0000
   1006 C324        15.8792   -10.8223    19.3556 C         1 MOL       0.0000
   1007 C325        21.9478    -4.5566    18.4496 C         1 MOL       0.0000
   1008 C326         5.5170    -3.8144    21.1060 C         1 MOL       0.0000
   1009 C327        20.1298    -6.3390    13.2432 C         1 MOL       0.0000
   1010 C328        13.6601     5.4526    13.2682 C         1 MOL       0.0000
   1011 C329        17.9793    -7.6419    26.2122 C         1 MOL       0.0000
   1012 C330         4.6210    -6.0995    26.1928 C         1 MOL       0.0000
   1013 C331        14.8642    -2.5105    18.8030 C         1 MOL       0.0000
   1014 C332        10.1081    -9.6049    20.7211 C         1 MOL       0.0000
   1015 C333        15.3590   -11.9502    26.3150 C         1 MOL       0.0000
   1016 C334        13.5674     4.0191    13.2307 C         1 MOL       0.0000
   1017 C335        16.6814    -8.2587    26.2590 C         1 MOL       0.0000
   1018 C336         6.0233    -5.6851    26.2173 C         1 MOL       0.0000
   1019 C337        20.1692    -7.0081    14.4729 C         1 MOL       0.0000
   1020 C338         9.0224    -0.9077    25.1258 C         1 MOL       0.0000
   1021 C339         7.2696     0.2559    14.2611 C         1 MOL       0.0000
   1022 C340         3.9882    -6.3292    24.9643 C         1 MOL       0.0000
   1023 C341        18.6739    -7.3736    24.9788 C         1 MOL       0.0000
   1024 C342         8.5588     0.7361    14.3103 C         1 MOL       0.0000
   1025 C343        15.5117   -14.1455    25.1279 C         1 MOL       0.0000
   1026 C344        20.1909    -8.4092    14.5545 C         1 MOL       0.0000
   1027 N51         20.2459    -9.0081    15.7926 N         1 MOL       0.0000
   1028 N52         18.0949    -7.5564    23.7398 N         1 MOL       0.0000
   1029 N53         19.4844    -3.1364    20.8630 N         1 MOL       0.0000
   1030 N54         17.5874   -11.8730    22.5100 N         1 MOL       0.0000
   1031 O201        18.7418    -2.8482    18.2959 O         1 MOL       0.0000
   1032 O202         8.3180    -6.0827    21.1861 O         1 MOL       0.0000
   1033 O203        15.5682   -10.2157    22.9078 O         1 MOL       0.0000
   1034 O204        12.1155     2.2329    16.5982 O         1 MOL       0.0000
   1035 O205        12.9518     0.8460    18.1842 O         1 MOL       0.0000
   1036 O206        14.0163    -9.9717    21.2812 O         1 MOL       0.0000
   1037 O207        20.3300    -3.1725    16.7184 O         1 MOL       0.0000
   1038 O208         7.5070    -4.6956    22.7841 O         1 MOL       0.0000
   1039 O209        17.6574    -3.4274    15.7194 O         1 MOL       0.0000
   1040 O210        10.0112    -5.5688    23.2844 O         1 MOL       0.0000
   1041 O211        18.5962    -1.1401    16.1693 O         1 MOL       0.0000
   1042 O212         8.2590    -7.2935    23.7771 O         1 MOL       0.0000
   1043 O213        12.8655   -10.5014    23.8718 O         1 MOL       0.0000
   1044 O214        14.6340     1.3940    16.0999 O         1 MOL       0.0000
   1045 O215        13.8195    -8.2399    23.4077 O         1 MOL       0.0000
   1046 O216        12.9278    -0.3631    15.5825 O         1 MOL       0.0000
   1047 O217        16.0853    -2.6904    18.4487 O         1 MOL       0.0000
   1048 O218         9.4504    -8.5699    21.0993 O         1 MOL       0.0000
   1049 O219        15.2368   -11.3556    25.1739 O         1 MOL       0.0000
   1050 O220        13.4843     3.3176    14.3259 O         1 MOL       0.0000
   1051 O221        16.0389    -8.5675    25.1688 O         1 MOL       0.0000
   1052 O222        11.2483     1.4819    14.2658 O         1 MOL       0.0000
   1053 O223        11.2699    -9.8994    21.1789 O         1 MOL       0.0000
   1054 O224        14.1223    -1.5896    18.3096 O         1 MOL       0.0000
   1055 O225        20.7771    -1.4929    14.3120 O         1 MOL       0.0000
   1056 O226         6.6228    -5.4533    25.0998 O         1 MOL       0.0000
   1057 O227        19.9816    -4.2472    14.3414 O         1 MOL       0.0000
   1058 O228         8.8910    -3.6709    25.1811 O         1 MOL       0.0000
   1059 O229        15.8492    -1.0359    16.2204 O         1 MOL       0.0000
   1060 O230        11.1473    -8.0397    23.2015 O         1 MOL       0.0000
   1061 O231        18.3033    -2.2611    13.2876 O         1 MOL       0.0000
   1062 O232         9.1007    -6.2250    26.2159 O         1 MOL       0.0000
   1063 H305        15.0656    -6.1610    21.7069 H         1 MOL       0.0000
   1064 H306         4.7616     2.9925    19.2913 H         1 MOL       0.0000
   1065 H307        15.8191     2.5916    18.7712 H         1 MOL       0.0000
   1066 H308        16.0621    -4.6174    19.9905 H         1 MOL       0.0000
   1067 H309        11.4068    -3.8966    21.6150 H         1 MOL       0.0000
   1068 H310        23.4939   -10.2761    20.1987 H         1 MOL       0.0000
   1069 H311        12.7386    -5.7933    22.4787 H         1 MOL       0.0000
   1070 H312        12.4065    -2.3536    19.8953 H         1 MOL       0.0000
   1071 H313        17.1556     0.8230    17.6516 H         1 MOL       0.0000
   1072 H314        19.6119     0.7295    17.9369 H         1 MOL       0.0000
   1073 C345        14.2871    -3.4049    19.8379 C         1 MOL       0.0000
   1074 C346        13.1785    -5.1174    21.7469 C         1 MOL       0.0000
   1075 C347        17.6536     1.5613    18.2794 C         1 MOL       0.0000
   1076 C348         9.4514   -10.5727    19.8098 C         1 MOL       0.0000
   1077 C349        12.9731    -3.1924    20.2943 C         1 MOL       0.0000
   1078 C350        14.4921    -5.3261    21.3072 C         1 MOL       0.0000
   1079 C351        16.9007     2.5687    18.8939 C         1 MOL       0.0000
   1080 C352         3.6844     3.0196    19.1426 C         1 MOL       0.0000
   1081 C353        19.0425     1.5094    18.4399 C         1 MOL       0.0000
   1082 C354        24.0576   -11.0712    19.7169 C         1 MOL       0.0000
   1083 C355        15.0472    -4.4709    20.3541 C         1 MOL       0.0000
   1084 C356        12.4214    -4.0490    21.2490 C         1 MOL       0.0000
   1085 N55         16.8713     3.2144    14.4610 N         1 MOL       0.0000
   1086 N56         13.4905    -4.8624    26.0559 N         1 MOL       0.0000
   1087 C357        16.6842     3.8539    13.2352 C         1 MOL       0.0000
   1088 C358        12.7986    -3.8662    25.3894 C         1 MOL       0.0000
   1089 C359        15.7638    -4.9114    25.0568 C         1 MOL       0.0000
   1090 C360        16.4007     3.7429    15.7698 C         1 MOL       0.0000
   1091 C361        17.8076     2.2604    14.2719 C         1 MOL       0.0000
   1092 C362        14.5338    -5.7189    25.4593 C         1 MOL       0.0000
   1093 H315        11.4955    -2.2840    26.2394 H         1 MOL       0.0000
   1094 H316        12.8889    -3.7100    24.3203 H         1 MOL       0.0000
   1095 H317        15.5023    -4.1158    24.3472 H         1 MOL       0.0000
   1096 H318        16.0165     4.7604    15.6244 H         1 MOL       0.0000
   1097 H319        16.2326    -4.4371    25.9265 H         1 MOL       0.0000
   1098 H320        15.7008     3.0681    16.2260 H         1 MOL       0.0000
   1099 H321        16.4948    -5.5735    24.5758 H         1 MOL       0.0000
   1100 H322        14.0877    -6.2394    24.6027 H         1 MOL       0.0000
   1101 H323        17.2357     3.8395    16.4644 H         1 MOL       0.0000
   1102 H324        18.3075     1.6951    15.0472 H         1 MOL       0.0000
   1103 H325        14.7676    -6.4789    26.2122 H         1 MOL       0.0000
   1104 N57         24.8720    -7.9421    13.4566 N         1 MOL       0.0000
   1105 C363        11.7397    -7.2453    14.9138 C         1 MOL       0.0000
   1106 C364        21.0664   -13.4347    24.2513 C         1 MOL       0.0000
   1107 O233        25.1589    -8.1882    15.9346 O         1 MOL       0.0000
   1108 O234        19.7647     4.2793    14.4074 O         1 MOL       0.0000
   1109 O235        12.6712    -0.8411    24.1708 O         1 MOL       0.0000
   1110 O236        15.1856    -1.6782    23.9964 O         1 MOL       0.0000
   1111 F61         11.4346    -5.7441    15.2462 F         1 MOL       0.0000
   1112 F62         21.9608   -12.3245    24.9675 F         1 MOL       0.0000
   1113 F63         12.9114    -6.8238    13.9777 F         1 MOL       0.0000
   1114 F64         11.4151    -7.7013    16.6779 F         1 MOL       0.0000
   1115 F65         19.9987   -12.5886    24.0739 F         1 MOL       0.0000
   1116 F66         14.3075     0.8813    22.3986 F         1 MOL       0.0000
   1117 S21         25.6946    -8.8064    14.6226 S         1 MOL       0.0000
   1118 S22         13.9584    -0.6705    24.7571 S         1 MOL       0.0000
   1119 N58         14.4167    -6.1722    16.3344 N         1 MOL       0.0000
   1120 N59         12.5352    -5.4676    17.2557 N         1 MOL       0.0000
   1121 C365        15.3996    -6.4920    15.2657 C         1 MOL       0.0000
   1122 C366        13.3436    -5.3827    16.1673 C         1 MOL       0.0000
   1123 C367        14.3312    -6.7557    17.5914 C         1 MOL       0.0000
   1124 C368        15.2066    -7.8416    14.5684 C         1 MOL       0.0000
   1125 C369        13.1591    -6.3276    18.1528 C         1 MOL       0.0000
   1126 C370        11.0917    -5.0994    17.3557 C         1 MOL       0.0000
   1127 H326        16.3803    -6.4512    15.7480 H         1 MOL       0.0000
   1128 H327        15.3485    -5.6615    14.5467 H         1 MOL       0.0000
   1129 H328        13.1276    -4.8996    15.2205 H         1 MOL       0.0000
   1130 H329        16.0495    -8.0538    13.9037 H         1 MOL       0.0000
   1131 H330        15.1425    -7.3491    17.9805 H         1 MOL       0.0000
   1132 H331        10.9387    -4.4278    18.1931 H         1 MOL       0.0000
   1133 H332        10.7608    -4.6046    16.4401 H         1 MOL       0.0000
   1134 H333        15.0357    -8.6621    15.2746 H         1 MOL       0.0000
   1135 H334        12.7051    -6.5557    19.1058 H         1 MOL       0.0000
   1136 H335        14.3455    -7.8567    13.9157 H         1 MOL       0.0000
   1137 H336        10.4716    -6.0154    17.4190 H         1 MOL       0.0000
   1138 N60         10.7473    -7.0920    14.5191 N         1 MOL       0.0000
   1139 C371        25.6084    -9.6547    16.1958 C         1 MOL       0.0000
   1140 C372        21.1010   -14.2511    25.4809 C         1 MOL       0.0000
   1141 O237        11.8729    -4.6991    13.5209 O         1 MOL       0.0000
   1142 O238         6.3188     5.4388    15.8199 O         1 MOL       0.0000
   1143 O239         7.5160   -14.0760    25.2104 O         1 MOL       0.0000
   1144 O240        21.3307     4.7377    13.5693 O         1 MOL       0.0000
   1145 F67         25.2511    -9.2289    17.4743 F         1 MOL       0.0000
   1146 F68         19.8014   -13.5400    26.0961 F         1 MOL       0.0000
   1147 F69         17.9075     4.9819    15.0530 F         1 MOL       0.0000
   1148 F70         19.0394     3.5664    16.4440 F         1 MOL       0.0000
   1149 F71         21.7544   -13.8782    23.9575 F         1 MOL       0.0000
   1150 F72         14.4670    -1.4946    25.3279 F         1 MOL       0.0000
   1151 S23         11.4644    -6.1162    13.2199 S         1 MOL       0.0000
   1152 S24          4.9560     5.8125    14.9828 S         1 MOL       0.0000
   1153 Ti49         6.6276    16.2858    11.2794 Ti        1 MOL       0.0000
   1154 Ti50        17.4580    19.1670     1.9146 Ti        1 MOL       0.0000
   1155 Ti51        10.7242    12.3496     9.4594 Ti        1 MOL       0.0000
   1156 Ti52        12.2354    21.5117     3.6864 Ti        1 MOL       0.0000
   1157 Ti53        11.2369    23.1900     1.7820 Ti        1 MOL       0.0000
   1158 Ti54        12.6125    12.0952    11.4128 Ti        1 MOL       0.0000
   1159 Ti55         7.5768    14.5499     9.3879 Ti        1 MOL       0.0000
   1160 Ti56        15.4702    19.4695     3.7621 Ti        1 MOL       0.0000
   1161 H337         7.1294    20.1828    11.0599 H         1 MOL       0.0000
   1162 H338        18.2668    15.2609     2.2353 H         1 MOL       0.0000
   1163 H339         2.6677    15.5291    10.8970 H         1 MOL       0.0000
   1164 H340        20.8402    21.1713     2.1152 H         1 MOL       0.0000
   1165 H341        13.5881     8.0607    11.0269 H         1 MOL       0.0000
   1166 H342         7.1783    22.6001     2.1040 H         1 MOL       0.0000
   1167 H343         7.0963    14.4872    13.0039 H         1 MOL       0.0000
   1168 H344        15.5825    18.9243     0.2147 H         1 MOL       0.0000
   1169 H345        13.1224    11.4281     5.9017 H         1 MOL       0.0000
   1170 H346        10.5120    23.3487     7.3053 H         1 MOL       0.0000
   1171 H347         3.5041    17.9385     9.0320 H         1 MOL       0.0000
   1172 H348        20.2128    17.0826     4.2206 H         1 MOL       0.0000
   1173 H349         5.8052    16.4911     5.6982 H         1 MOL       0.0000
   1174 H350         8.1368    25.0179     4.1352 H         1 MOL       0.0000
   1175 H351        11.6291    26.2928     2.6375 H         1 MOL       0.0000
   1176 H352        18.1090    13.2421     3.4378 H         1 MOL       0.0000
   1177 H353        14.3281    21.1918     2.3478 H         1 MOL       0.0000
   1178 H354         9.6435    14.1980    10.7530 H         1 MOL       0.0000
   1179 H355        16.8472    14.0301     9.8025 H         1 MOL       0.0000
   1180 H356        15.3661    13.5610    10.5498 H         1 MOL       0.0000
   1181 H357        17.4213    18.4637     8.7035 H         1 MOL       0.0000
   1182 H358        16.8516    18.8223     7.0850 H         1 MOL       0.0000
   1183 H359        16.3584     9.0752     9.6124 H         1 MOL       0.0000
   1184 H360        15.0792    10.1758    10.0698 H         1 MOL       0.0000
   1185 C373        18.0361    18.4257     4.7781 C         1 MOL       0.0000
   1186 C374         5.6670    16.5472     8.4324 C         1 MOL       0.0000
   1187 C375        13.3048    11.3389     8.5347 C         1 MOL       0.0000
   1188 C376        10.2993    23.4822     4.6457 C         1 MOL       0.0000
   1189 C377        18.9321    17.8214     5.7733 C         1 MOL       0.0000
   1190 C378         4.7351    17.1722     7.4553 C         1 MOL       0.0000
   1191 C379        14.2450    10.7245     7.5875 C         1 MOL       0.0000
   1192 C380         9.4095    24.1290     5.6455 C         1 MOL       0.0000
   1193 C381        18.6833    17.8963     7.1797 C         1 MOL       0.0000
   1194 C382         4.9515    17.0522     6.0673 C         1 MOL       0.0000
   1195 C383        15.3744     9.9642     8.0406 C         1 MOL       0.0000
   1196 C384         8.3148    24.9020     5.2006 C         1 MOL       0.0000
   1197 C385         9.6640    23.9582     7.0004 C         1 MOL       0.0000
   1198 C386        13.9972    10.8566     6.2036 C         1 MOL       0.0000
   1199 C387        20.0658    17.1224     5.2976 C         1 MOL       0.0000
   1200 C388         3.6349    17.8646     7.9540 C         1 MOL       0.0000
   1201 C389        18.2478    15.3400     0.0912 C         1 MOL       0.0000
   1202 C390        11.7781    27.1316     0.1162 C         1 MOL       0.0000
   1203 C391        16.0973    14.0371    13.0602 C         1 MOL       0.0000
   1204 C392         2.7390    15.5795    13.0408 C         1 MOL       0.0000
   1205 C393        12.9822    19.1685     5.6510 C         1 MOL       0.0000
   1206 C394         8.2261    12.0742     7.5691 C         1 MOL       0.0000
   1207 C395        13.4770     9.7288    13.1630 C         1 MOL       0.0000
   1208 C396        11.6854    25.6981     0.0787 C         1 MOL       0.0000
   1209 C397        14.7995    13.4203    13.1070 C         1 MOL       0.0000
   1210 C398         4.1413    15.9939    13.0653 C         1 MOL       0.0000
   1211 C399        18.2872    14.6709     1.3209 C         1 MOL       0.0000
   1212 C400         7.1404    20.7713    11.9738 C         1 MOL       0.0000
   1213 C401         5.3876    21.9349     1.1091 C         1 MOL       0.0000
   1214 C402         2.1062    15.3498    11.8123 C         1 MOL       0.0000
   1215 C403        16.7919    14.3054    11.8268 C         1 MOL       0.0000
   1216 C404         6.6768    22.4151     1.1583 C         1 MOL       0.0000
   1217 C405        13.6297     7.5335    11.9759 C         1 MOL       0.0000
   1218 C406        18.3089    13.2698     1.4025 C         1 MOL       0.0000
   1219 N61         18.3639    12.6709     2.6406 N         1 MOL       0.0000
   1220 N62         16.2129    14.1226    10.5878 N         1 MOL       0.0000
   1221 N63         17.6025    18.5426     7.7110 N         1 MOL       0.0000
   1222 N64         15.7054     9.8060     9.3580 N         1 MOL       0.0000
   1223 O241        16.8598    18.8308     5.1439 O         1 MOL       0.0000
   1224 O242         6.4360    15.5963     8.0341 O         1 MOL       0.0000
   1225 O243        13.6862    11.4633     9.7558 O         1 MOL       0.0000
   1226 O244        10.2335    23.9119     3.4461 O         1 MOL       0.0000
   1227 O245        11.0698    22.5250     5.0322 O         1 MOL       0.0000
   1228 O246        12.1343    11.7073     8.1292 O         1 MOL       0.0000
   1229 O247        18.4480    18.5065     3.5664 O         1 MOL       0.0000
   1230 O248         5.6250    16.9834     9.6321 O         1 MOL       0.0000
   1231 O249        15.7754    18.2516     2.5674 O         1 MOL       0.0000
   1232 O250         8.1292    16.1102    10.1324 O         1 MOL       0.0000
   1233 O251        16.7142    20.5389     3.0173 O         1 MOL       0.0000
   1234 O252         6.3770    14.3855    10.6251 O         1 MOL       0.0000
   1235 O253        10.9835    11.1776    10.7198 O         1 MOL       0.0000
   1236 O254        12.7520    23.0730     2.9479 O         1 MOL       0.0000
   1237 O255        11.9375    13.4391    10.2557 O         1 MOL       0.0000
   1238 O256        11.0458    21.3159     2.4305 O         1 MOL       0.0000
   1239 O257        14.2033    18.9886     5.2967 O         1 MOL       0.0000
   1240 O258         7.5684    13.1091     7.9473 O         1 MOL       0.0000
   1241 O259        13.3548    10.3234    12.0219 O         1 MOL       0.0000
   1242 O260        11.6023    24.9966     1.1739 O         1 MOL       0.0000
   1243 O261        14.1569    13.1115    12.0168 O         1 MOL       0.0000
   1244 O262         9.3663    23.1609     1.1138 O         1 MOL       0.0000
   1245 O263         9.3879    11.7796     8.0269 O         1 MOL       0.0000
   1246 O264        12.2403    20.0894     5.1576 O         1 MOL       0.0000
   1247 O265        18.8951    20.1861     1.1600 O         1 MOL       0.0000
   1248 O266         4.7408    16.2257    11.9478 O         1 MOL       0.0000
   1249 O267        18.0995    17.4318     1.1894 O         1 MOL       0.0000
   1250 O268         7.0090    18.0080    12.0291 O         1 MOL       0.0000
   1251 O269        13.9672    20.6431     3.0684 O         1 MOL       0.0000
   1252 O270         9.2653    13.6393    10.0495 O         1 MOL       0.0000
   1253 O271        16.4213    19.4179     0.1356 O         1 MOL       0.0000
   1254 O272         7.2187    15.4540    13.0639 O         1 MOL       0.0000
   1255 H361        13.1836    15.5180     8.5549 H         1 MOL       0.0000
   1256 H362         2.8796    24.6715     6.1393 H         1 MOL       0.0000
   1257 H363        13.9371    24.2706     5.6192 H         1 MOL       0.0000
   1258 H364        14.1801    17.0616     6.8385 H         1 MOL       0.0000
   1259 H365         9.5248    17.7824     8.4630 H         1 MOL       0.0000
   1260 H366        21.6119    11.4029     7.0467 H         1 MOL       0.0000
   1261 H367        10.8566    15.8857     9.3267 H         1 MOL       0.0000
   1262 H368        10.5245    19.3254     6.7433 H         1 MOL       0.0000
   1263 H369        15.2736    22.5020     4.4996 H         1 MOL       0.0000
   1264 H370        17.7299    22.4085     4.7849 H         1 MOL       0.0000
   1265 C407        12.4051    18.2741     6.6859 C         1 MOL       0.0000
   1266 C408        11.2965    16.5616     8.5949 C         1 MOL       0.0000
   1267 C409        15.7716    23.2403     5.1274 C         1 MOL       0.0000
   1268 C410         7.5694    11.1063     6.6578 C         1 MOL       0.0000
   1269 C411        11.0911    18.4866     7.1423 C         1 MOL       0.0000
   1270 C412        12.6101    16.3529     8.1552 C         1 MOL       0.0000
   1271 C413        15.0187    24.2477     5.7419 C         1 MOL       0.0000
   1272 C414         1.8024    24.6986     5.9906 C         1 MOL       0.0000
   1273 C415        17.1605    23.1884     5.2879 C         1 MOL       0.0000
   1274 C416        22.1756    10.6078     6.5649 C         1 MOL       0.0000
   1275 C417        13.1652    17.2081     7.2021 C         1 MOL       0.0000
   1276 C418        10.5394    17.6300     8.0970 C         1 MOL       0.0000
   1277 N65         14.9893    24.8934     1.3090 N         1 MOL       0.0000
   1278 N66         11.6085    16.8166    12.9039 N         1 MOL       0.0000
   1279 C419        14.8022    25.5329     0.0832 C         1 MOL       0.0000
   1280 C420        10.9166    17.8128    12.2374 C         1 MOL       0.0000
   1281 C421        13.8818    16.7676    11.9048 C         1 MOL       0.0000
   1282 C422        14.5187    25.4219     2.6178 C         1 MOL       0.0000
   1283 C423        15.9256    23.9394     1.1199 C         1 MOL       0.0000
   1284 C424        12.6518    15.9601    12.3073 C         1 MOL       0.0000
   1285 H371         9.6135    19.3950    13.0874 H         1 MOL       0.0000
   1286 H372        11.0069    17.9690    11.1683 H         1 MOL       0.0000
   1287 H373        13.6203    17.5632    11.1952 H         1 MOL       0.0000
   1288 H374        14.1345    26.4394     2.4724 H         1 MOL       0.0000
   1289 H375        14.3506    17.2419    12.7745 H         1 MOL       0.0000
   1290 H376        13.8188    24.7471     3.0740 H         1 MOL       0.0000
   1291 H377        14.6128    16.1055    11.4238 H         1 MOL       0.0000
   1292 H378        12.2057    15.4396    11.4507 H         1 MOL       0.0000
   1293 H379        15.3537    25.5185     3.3124 H         1 MOL       0.0000
   1294 H380        16.4255    23.3741     1.8952 H         1 MOL       0.0000
   1295 H381        12.8856    15.2001    13.0602 H         1 MOL       0.0000
   1296 N67         22.9900    13.7369     0.3046 N         1 MOL       0.0000
   1297 C425         9.8577    14.4337     1.7618 C         1 MOL       0.0000
   1298 C426        19.1844     8.2443    11.0993 C         1 MOL       0.0000
   1299 O273        23.2769    13.4908     2.7826 O         1 MOL       0.0000
   1300 O274        17.8827    25.9583     1.2554 O         1 MOL       0.0000
   1301 O275        10.7892    20.8379    11.0188 O         1 MOL       0.0000
   1302 O276        13.3036    20.0008    10.8444 O         1 MOL       0.0000
   1303 F73          9.5526    15.9349     2.0942 F         1 MOL       0.0000
   1304 F74         20.0788     9.3545    11.8155 F         1 MOL       0.0000
   1305 F75         11.0294    14.8552     0.8257 F         1 MOL       0.0000
   1306 F76          9.5331    13.9777     3.5259 F         1 MOL       0.0000
   1307 F77         18.1167     9.0904    10.9219 F         1 MOL       0.0000
   1308 F78         12.4255    22.5603     9.2466 F         1 MOL       0.0000
   1309 S25         23.8126    12.8726     1.4706 S         1 MOL       0.0000
   1310 S26         12.0764    21.0085    11.6051 S         1 MOL       0.0000
   1311 N68         12.5347    15.5068     3.1824 N         1 MOL       0.0000
   1312 N69         10.6532    16.2114     4.1037 N         1 MOL       0.0000
   1313 C427        13.5176    15.1870     2.1137 C         1 MOL       0.0000
   1314 C428        11.4616    16.2963     3.0153 C         1 MOL       0.0000
   1315 C429        12.4492    14.9233     4.4394 C         1 MOL       0.0000
   1316 C430        13.3246    13.8374     1.4164 C         1 MOL       0.0000
   1317 C431        11.2771    15.3514     5.0008 C         1 MOL       0.0000
   1318 C432         9.2097    16.5796     4.2037 C         1 MOL       0.0000
   1319 H382        14.4983    15.2278     2.5960 H         1 MOL       0.0000
   1320 H383        13.4665    16.0175     1.3947 H         1 MOL       0.0000
   1321 H384        11.2456    16.7794     2.0685 H         1 MOL       0.0000
   1322 H385        14.1675    13.6252     0.7517 H         1 MOL       0.0000
   1323 H386        13.2605    14.3299     4.8285 H         1 MOL       0.0000
   1324 H387         9.0567    17.2512     5.0411 H         1 MOL       0.0000
   1325 H388         8.8788    17.0744     3.2881 H         1 MOL       0.0000
   1326 H389        13.1537    13.0169     2.1226 H         1 MOL       0.0000
   1327 H390        10.8231    15.1233     5.9538 H         1 MOL       0.0000
   1328 H391        12.4635    13.8223     0.7637 H         1 MOL       0.0000
   1329 H392         8.5896    15.6636     4.2670 H         1 MOL       0.0000
   1330 N70          8.8653    14.5870     1.3671 N         1 MOL       0.0000
   1331 C433        23.7264    12.0243     3.0438 C         1 MOL       0.0000
   1332 C434        19.2190     7.4279    12.3289 C         1 MOL       0.0000
   1333 O277         9.9909    16.9799     0.3689 O         1 MOL       0.0000
   1334 O278         4.4368    27.1178     2.6679 O         1 MOL       0.0000
   1335 O279         5.6340     7.6030    12.0584 O         1 MOL       0.0000
   1336 O280        19.4487    26.4167     0.4173 O         1 MOL       0.0000
   1337 F79         23.3691    12.4501     4.3223 F         1 MOL       0.0000
   1338 F80         17.9194     8.1390    12.9441 F         1 MOL       0.0000
   1339 F81         16.0255    26.6609     1.9010 F         1 MOL       0.0000
   1340 F82         17.1574    25.2454     3.2920 F         1 MOL       0.0000
   1341 F83         19.8724     7.8008    10.8055 F         1 MOL       0.0000
   1342 F84         12.5850    20.1844    12.1759 F         1 MOL       0.0000
   1343 S27          9.5824    15.5628     0.0679 S         1 MOL       0.0000
   1344 S28          3.0740    27.4915     1.8308 S         1 MOL       0.0000
   1345 Ti57         1.9926     9.2198    24.3744 Ti        1 MOL       0.0000
   1346 Ti58        12.8230    12.1010    15.0096 Ti        1 MOL       0.0000
   1347 Ti59         6.0892     5.2836    22.5544 Ti        1 MOL       0.0000
   1348 Ti60         7.6004    14.4457    16.7814 Ti        1 MOL       0.0000
   1349 Ti61         6.6019    16.1240    14.8770 Ti        1 MOL       0.0000
   1350 Ti62         7.9775     5.0292    24.5078 Ti        1 MOL       0.0000
   1351 Ti63         2.9418     7.4839    22.4829 Ti        1 MOL       0.0000
   1352 Ti64        10.8352    12.4035    16.8571 Ti        1 MOL       0.0000
   1353 H393         2.4944    13.1168    24.1549 H         1 MOL       0.0000
   1354 H394        13.6318     8.1949    15.3303 H         1 MOL       0.0000
   1355 H395        -1.9673     8.4631    23.9920 H         1 MOL       0.0000
   1356 H396        16.2052    14.1053    15.2102 H         1 MOL       0.0000
   1357 H397         8.9531     0.9947    24.1219 H         1 MOL       0.0000
   1358 H398         2.5433    15.5341    15.1991 H         1 MOL       0.0000
   1359 H399         2.4613     7.4212    26.0989 H         1 MOL       0.0000
   1360 H400        10.9475    11.8583    13.3096 H         1 MOL       0.0000
   1361 H401         8.4874     4.3621    18.9967 H         1 MOL       0.0000
   1362 H402         5.8770    16.2827    20.4003 H         1 MOL       0.0000
   1363 H403        -1.1309    10.8725    22.1270 H         1 MOL       0.0000
   1364 H404        15.5778    10.0166    17.3156 H         1 MOL       0.0000
   1365 H405         1.1702     9.4251    18.7932 H         1 MOL       0.0000
   1366 H406         3.5018    17.9519    17.2302 H         1 MOL       0.0000
   1367 H407         6.9941    19.2268    15.7325 H         1 MOL       0.0000
   1368 H408        13.4740     6.1761    16.5328 H         1 MOL       0.0000
   1369 H409         9.6931    14.1258    15.4428 H         1 MOL       0.0000
   1370 H410         5.0085     7.1320    23.8480 H         1 MOL       0.0000
   1371 H411        12.2122     6.9641    22.8975 H         1 MOL       0.0000
   1372 H412        10.7311     6.4950    23.6448 H         1 MOL       0.0000
   1373 H413        12.7863    11.3977    21.7985 H         1 MOL       0.0000
   1374 H414        12.2166    11.7563    20.1800 H         1 MOL       0.0000
   1375 H415        11.7234     2.0092    22.7074 H         1 MOL       0.0000
   1376 H416        10.4442     3.1098    23.1648 H         1 MOL       0.0000
   1377 C435        13.4011    11.3597    17.8731 C         1 MOL       0.0000
   1378 C436         1.0320     9.4811    21.5274 C         1 MOL       0.0000
   1379 C437         8.6698     4.2729    21.6297 C         1 MOL       0.0000
   1380 C438         5.6643    16.4162    17.7407 C         1 MOL       0.0000
   1381 C439        14.2971    10.7554    18.8683 C         1 MOL       0.0000
   1382 C440         0.1001    10.1062    20.5503 C         1 MOL       0.0000
   1383 C441         9.6100     3.6585    20.6825 C         1 MOL       0.0000
   1384 C442         4.7745    17.0630    18.7405 C         1 MOL       0.0000
   1385 C443        14.0483    10.8303    20.2747 C         1 MOL       0.0000
   1386 C444         0.3165     9.9862    19.1623 C         1 MOL       0.0000
   1387 C445        10.7394     2.8982    21.1356 C         1 MOL       0.0000
   1388 C446         3.6798    17.8360    18.2956 C         1 MOL       0.0000
   1389 C447         5.0290    16.8923    20.0954 C         1 MOL       0.0000
   1390 C448         9.3622     3.7906    19.2986 C         1 MOL       0.0000
   1391 C449        15.4308    10.0564    18.3926 C         1 MOL       0.0000
   1392 C450        -1.0001    10.7986    21.0490 C         1 MOL       0.0000
   1393 C451        13.6128     8.2740    13.1862 C         1 MOL       0.0000
   1394 C452         7.1431    20.0656    13.2112 C         1 MOL       0.0000
   1395 C453        11.4623     6.9711    26.1552 C         1 MOL       0.0000
   1396 C454        -1.8960     8.5135    26.1358 C         1 MOL       0.0000
   1397 C455         8.3472    12.1025    18.7460 C         1 MOL       0.0000
   1398 C456         3.5911     5.0082    20.6641 C         1 MOL       0.0000
   1399 C457         8.8420     2.6628    26.2580 C         1 MOL       0.0000
   1400 C458         7.0504    18.6321    13.1737 C         1 MOL       0.0000
   1401 C459        10.1645     6.3543    26.2020 C         1 MOL       0.0000
   1402 C460        -0.4937     8.9279    26.1603 C         1 MOL       0.0000
   1403 C461        13.6522     7.6049    14.4159 C         1 MOL       0.0000
   1404 C462         2.5054    13.7053    25.0688 C         1 MOL       0.0000
   1405 C463         0.7526    14.8689    14.2041 C         1 MOL       0.0000
   1406 C464        -2.5288     8.2838    24.9073 C         1 MOL       0.0000
   1407 C465        12.1569     7.2394    24.9218 C         1 MOL       0.0000
   1408 C466         2.0418    15.3491    14.2533 C         1 MOL       0.0000
   1409 C467         8.9947     0.4675    25.0709 C         1 MOL       0.0000
   1410 C468        13.6739     6.2038    14.4975 C         1 MOL       0.0000
   1411 N71         13.7289     5.6049    15.7356 N         1 MOL       0.0000
   1412 N72         11.5779     7.0566    23.6828 N         1 MOL       0.0000
   1413 N73         12.9675    11.4766    20.8060 N         1 MOL       0.0000
   1414 N74         11.0704     2.7400    22.4530 N         1 MOL       0.0000
   1415 O281        12.2248    11.7648    18.2389 O         1 MOL       0.0000
   1416 O282         1.8010     8.5303    21.1291 O         1 MOL       0.0000
   1417 O283         9.0512     4.3973    22.8508 O         1 MOL       0.0000
   1418 O284         5.5985    16.8459    16.5412 O         1 MOL       0.0000
   1419 O285         6.4348    15.4590    18.1272 O         1 MOL       0.0000
   1420 O286         7.4993     4.6413    21.2242 O         1 MOL       0.0000
   1421 O287        13.8130    11.4405    16.6614 O         1 MOL       0.0000
   1422 O288         0.9900     9.9174    22.7271 O         1 MOL       0.0000
   1423 O289        11.1404    11.1856    15.6624 O         1 MOL       0.0000
   1424 O290         3.4942     9.0442    23.2274 O         1 MOL       0.0000
   1425 O291        12.0792    13.4729    16.1123 O         1 MOL       0.0000
   1426 O292         1.7420     7.3195    23.7201 O         1 MOL       0.0000
   1427 O293         6.3486     4.1116    23.8148 O         1 MOL       0.0000
   1428 O294         8.1170    16.0070    16.0429 O         1 MOL       0.0000
   1429 O295         7.3025     6.3731    23.3507 O         1 MOL       0.0000
   1430 O296         6.4108    14.2499    15.5255 O         1 MOL       0.0000
   1431 O297         9.5683    11.9226    18.3917 O         1 MOL       0.0000
   1432 O298         2.9334     6.0431    21.0423 O         1 MOL       0.0000
   1433 O299         8.7198     3.2574    25.1169 O         1 MOL       0.0000
   1434 O300         6.9673    17.9306    14.2689 O         1 MOL       0.0000
   1435 O301         9.5219     6.0455    25.1118 O         1 MOL       0.0000
   1436 O302         4.7313    16.0949    14.2088 O         1 MOL       0.0000
   1437 O303         4.7529     4.7136    21.1219 O         1 MOL       0.0000
   1438 O304         7.6053    13.0234    18.2526 O         1 MOL       0.0000
   1439 O305        14.2601    13.1201    14.2550 O         1 MOL       0.0000
   1440 O306         0.1058     9.1597    25.0428 O         1 MOL       0.0000
   1441 O307        13.4645    10.3658    14.2844 O         1 MOL       0.0000
   1442 O308         2.3740    10.9420    25.1241 O         1 MOL       0.0000
   1443 O309         9.3322    13.5771    16.1634 O         1 MOL       0.0000
   1444 O310         4.6303     6.5733    23.1445 O         1 MOL       0.0000
   1445 O311        11.7863    12.3519    13.2306 O         1 MOL       0.0000
   1446 O312         2.5837     8.3880    26.1589 O         1 MOL       0.0000
   1447 H417         8.5486     8.4520    21.6499 H         1 MOL       0.0000
   1448 H418        -1.7554    17.6055    19.2343 H         1 MOL       0.0000
   1449 H419         9.3021    17.2046    18.7142 H         1 MOL       0.0000
   1450 H420         9.5451     9.9956    19.9335 H         1 MOL       0.0000
   1451 H421         4.8898    10.7164    21.5580 H         1 MOL       0.0000
   1452 H422        16.9769     4.3369    20.1417 H         1 MOL       0.0000
   1453 H423         6.2216     8.8197    22.4217 H         1 MOL       0.0000
   1454 H424         5.8895    12.2594    19.8383 H         1 MOL       0.0000
   1455 H425        10.6386    15.4360    17.5946 H         1 MOL       0.0000
   1456 H426        13.0949    15.3425    17.8799 H         1 MOL       0.0000
   1457 C469         7.7701    11.2081    19.7809 C         1 MOL       0.0000
   1458 C470         6.6615     9.4956    21.6899 C         1 MOL       0.0000
   1459 C471        11.1366    16.1743    18.2224 C         1 MOL       0.0000
   1460 C472         2.9344     4.0403    19.7528 C         1 MOL       0.0000
   1461 C473         6.4561    11.4206    20.2373 C         1 MOL       0.0000
   1462 C474         7.9751     9.2869    21.2502 C         1 MOL       0.0000
   1463 C475        10.3837    17.1817    18.8369 C         1 MOL       0.0000
   1464 C476        -2.8326    17.6326    19.0856 C         1 MOL       0.0000
   1465 C477        12.5255    16.1224    18.3829 C         1 MOL       0.0000
   1466 C478        17.5406     3.5418    19.6599 C         1 MOL       0.0000
   1467 C479         8.5302    10.1421    20.2971 C         1 MOL       0.0000
   1468 C480         5.9044    10.5640    21.1920 C         1 MOL       0.0000
   1469 N75         10.3543    17.8274    14.4040 N         1 MOL       0.0000
   1470 N76          6.9735     9.7506    25.9989 N         1 MOL       0.0000
   1471 C481        10.1672    18.4669    13.1782 C         1 MOL       0.0000
   1472 C482         6.2816    10.7468    25.3324 C         1 MOL       0.0000
   1473 C483         9.2468     9.7016    24.9998 C         1 MOL       0.0000
   1474 C484         9.8837    18.3559    15.7128 C         1 MOL       0.0000
   1475 C485        11.2906    16.8734    14.2149 C         1 MOL       0.0000
   1476 C486         8.0168     8.8941    25.4023 C         1 MOL       0.0000
   1477 H427         4.9785    12.3290    26.1824 H         1 MOL       0.0000
   1478 H428         6.3719    10.9030    24.2633 H         1 MOL       0.0000
   1479 H429         8.9853    10.4972    24.2902 H         1 MOL       0.0000
   1480 H430         9.4995    19.3734    15.5674 H         1 MOL       0.0000
   1481 H431         9.7156    10.1759    25.8695 H         1 MOL       0.0000
   1482 H432         9.1838    17.6811    16.1690 H         1 MOL       0.0000
   1483 H433         9.9778     9.0395    24.5188 H         1 MOL       0.0000
   1484 H434         7.5707     8.3736    24.5457 H         1 MOL       0.0000
   1485 H435        10.7187    18.4525    16.4074 H         1 MOL       0.0000
   1486 H436        11.7905    16.3081    14.9902 H         1 MOL       0.0000
   1487 H437         8.2506     8.1341    26.1552 H         1 MOL       0.0000
   1488 N77         18.3550     6.6709    13.3996 N         1 MOL       0.0000
   1489 C487         5.2227     7.3677    14.8568 C         1 MOL       0.0000
   1490 C488        14.5494     1.1783    24.1943 C         1 MOL       0.0000
   1491 O313        18.6419     6.4248    15.8776 O         1 MOL       0.0000
   1492 O314        13.2477    18.8923    14.3504 O         1 MOL       0.0000
   1493 O315         6.1542    13.7719    24.1138 O         1 MOL       0.0000
   1494 O316         8.6686    12.9348    23.9394 O         1 MOL       0.0000
   1495 F85          4.9176     8.8689    15.1892 F         1 MOL       0.0000
   1496 F86         15.4438     2.2885    24.9105 F         1 MOL       0.0000
   1497 F87          6.3944     7.7892    13.9207 F         1 MOL       0.0000
   1498 F88          4.8981     6.9117    16.6209 F         1 MOL       0.0000
   1499 F89         13.4817     2.0244    24.0169 F         1 MOL       0.0000
   1500 F90          7.7905    15.4943    22.3416 F         1 MOL       0.0000
   1501 S29         19.1776     5.8066    14.5656 S         1 MOL       0.0000
   1502 S30          7.4414    13.9425    24.7001 S         1 MOL       0.0000
   1503 N78          7.8997     8.4408    16.2774 N         1 MOL       0.0000
   1504 N79          6.0182     9.1454    17.1987 N         1 MOL       0.0000
   1505 C489         8.8826     8.1210    15.2087 C         1 MOL       0.0000
   1506 C490         6.8266     9.2303    16.1103 C         1 MOL       0.0000
   1507 C491         7.8142     7.8573    17.5344 C         1 MOL       0.0000
   1508 C492         8.6896     6.7714    14.5114 C         1 MOL       0.0000
   1509 C493         6.6421     8.2854    18.0958 C         1 MOL       0.0000
   1510 C494         4.5747     9.5136    17.2987 C         1 MOL       0.0000
   1511 H438         9.8633     8.1618    15.6910 H         1 MOL       0.0000
   1512 H439         8.8315     8.9515    14.4897 H         1 MOL       0.0000
   1513 H440         6.6106     9.7134    15.1635 H         1 MOL       0.0000
   1514 H441         9.5325     6.5592    13.8467 H         1 MOL       0.0000
   1515 H442         8.6255     7.2639    17.9235 H         1 MOL       0.0000
   1516 H443         4.4217    10.1852    18.1361 H         1 MOL       0.0000
   1517 H444         4.2438    10.0084    16.3831 H         1 MOL       0.0000
   1518 H445         8.5187     5.9509    15.2176 H         1 MOL       0.0000
   1519 H446         6.1881     8.0573    19.0488 H         1 MOL       0.0000
   1520 H447         7.8285     6.7563    13.8587 H         1 MOL       0.0000
   1521 H448         3.9546     8.5976    17.3620 H         1 MOL       0.0000
   1522 N80          4.2303     7.5210    14.4621 N         1 MOL       0.0000
   1523 C495        19.0914     4.9583    16.1388 C         1 MOL       0.0000
   1524 C496        14.5840     0.3619    25.4239 C         1 MOL       0.0000
   1525 O317         5.3559     9.9139    13.4639 O         1 MOL       0.0000
   1526 O318        -0.1982    20.0518    15.7629 O         1 MOL       0.0000
   1527 O319         0.9990     0.5370    25.1534 O         1 MOL       0.0000
   1528 O320        14.8137    19.3507    13.5123 O         1 MOL       0.0000
   1529 F91         18.7341     5.3841    17.4173 F         1 MOL       0.0000
   1530 F92         13.2844     1.0730    26.0391 F         1 MOL       0.0000
   1531 F93         11.3905    19.5949    14.9960 F         1 MOL       0.0000
   1532 F94         12.5224    18.1794    16.3870 F         1 MOL       0.0000
   1533 F95         15.2374     0.7348    23.9005 F         1 MOL       0.0000
   1534 F96          7.9500    13.1184    25.2709 F         1 MOL       0.0000
   1535 S31          4.9474     8.4968    13.1629 S         1 MOL       0.0000
   1536 S32         -1.5610    20.4255    14.9258 S         1 MOL       0.0000
@<TRIPOS>BOND
     1     1    78 1
     2     1    96 1
     3     7    88 1
     4     7   100 1
     5     1     7 1
     6     1    80 1
     7     1    82 1
     8     7    72 1
     9     7    80 1
    10     7    82 1
    11     1   102 1
    12     1   197 1
    13     1    98 1
    14     2     8 1
    15     2    79 1
    16     2    81 1
    17     2   101 1
    18     2    97 1
    19     2    77 1
    20     2    95 1
    21     3    93 1
    22     3   100 1
    23     3    76 1
    24     3    83 1
    25     3    85 1
    26     3     6 1
    27     4    86 1
    28     4    94 1
    29     4     5 1
    30     4    84 1
    31     4    75 1
    32     4    99 1
    33     5    92 1
    34     5    86 1
    35     5    74 1
    36     5    84 1
    37     5    90 1
    38     6    83 1
    39     6    85 1
    40     6   194 1
    41     6   293 1
    42   194   293 1
    43   208   293 1
    44   194   200 1
    45   194   271 1
    46   194   273 1
    47     6    73 1
    48     6    89 1
    49     6    91 1
    50   194   287 1
    51   194   289 1
    52   194   269 1
    53     8    79 1
    54     8    81 1
    55     8    99 1
    56    16   101 1
    57    25    99 1
    58     8    71 1
    59     8    87 1
    60     9    60 1
    61    59    66 1
    62    10    59 1
    63    49    59 1
    64    34    38 1
    65    34    78 1
    66    11    62 1
    67    34    72 1
    68    12   829 1
    69   829   832 1
    70    31    70 1
    71    32    70 1
    72    43    70 1
    73    13    65 1
    74    14    64 1
    75   197   284 1
    76   197   266 1
    77    15   102 1
    78   102   197 1
    79   197   276 1
    80   197   278 1
    81   197   282 1
    82    17    46 1
    83    36    40 1
    84    45   427 1
    85    36    74 1
    86    18    45 1
    87    36    75 1
    88    19    48 1
    89    20    47 1
    90    47   810 1
    91    21    42 1
    92   166   173 1
    93   166   172 1
    94   166   177 1
    95    22    44 1
    96    40    44 1
    97    44   430 1
    98    40    45 1
    99    56    90 1
   100    23   451 1
   101    50    56 1
   102    50   450 1
   103   408   451 1
   104   450   451 1
   105    24    67 1
   106    66    67 1
   107    26   100 1
   108   118   123 1
   109   103   118 1
   110   107   124 1
   111   109   114 1
   112   114   118 1
   113   114   124 1
   114    35    76 1
   115    39    43 1
   116    39    46 1
   117    35    39 1
   118    35    73 1
   119    27    68 1
   120    28    68 1
   121    29    69 1
   122    30    69 1
   123    33    71 1
   124    37    47 1
   125    41   816 1
   126    33    77 1
   127    33    37 1
   128    37    41 1
   129    41    69 1
   130    38    42 1
   131    38    48 1
   132    51    57 1
   133    57    91 1
   134    57   287 1
   135    51    63 1
   136    51  1021 1
   137    52    58 1
   138    52    62 1
   139    52   256 1
   140    58    96 1
   141    58   284 1
   142   113   123 1
   143   117   124 1
   144    53    94 1
   145    53   113 1
   146   110   117 1
   147   113   117 1
   148    53    87 1
   149    54   116 1
   150    54    88 1
   151    54    93 1
   152   251   258 1
   153    55   241 1
   154    65   241 1
   155   241   251 1
   156    55    89 1
   157    55   289 1
   158    60   242 1
   159    98   248 1
   160   242   248 1
   161   242   642 1
   162   248   282 1
   163   642   643 1
   164    60   449 1
   165    61    64 1
   166   129   132 1
   167    63    68 1
   168   129   135 1
   169   129   137 1
   170   129   139 1
   171    63   830 1
   172  1021  1024 1
   173   104   120 1
   174   105   119 1
   175   111   115 1
   176   115   119 1
   177   119   506 1
   178   115   121 1
   179   506  1268 1
   180   106   123 1
   181   108   122 1
   182   122   884 1
   183   112   121 1
   184   121   888 1
   185   872   888 1
   186   888  1268 1
   187   120   500 1
   188   160   166 1
   189   160   162 1
   190   160   165 1
   191   163   165 1
   192   165   175 1
   193   163   171 1
   194   125   131 1
   195   131   142 1
   196   125   127 1
   197   125   130 1
   198   126   132 1
   199   126   323 1
   200   132   140 1
   201   132   143 1
   202   323   334 1
   203   126   128 1
   204   130   138 1
   205   130   136 1
   206   130   141 1
   207   187   541 1
   208   187   563 1
   209   528   541 1
   210   531   541 1
   211   531   563 1
   212   317   323 1
   213   128   134 1
   214   128   319 1
   215   133   319 1
   216   158   190 1
   217   158   720 1
   218   317   319 1
   219   379   733 1
   220   720   733 1
   221   317   322 1
   222   379   755 1
   223   733   755 1
   224   158   530 1
   225   158   564 1
   226   733  1152 1
   227   733  1522 1
   228   149   158 1
   229   144   157 1
   230   147   157 1
   231   147   179 1
   232   157   179 1
   233   179   185 1
   234   157   946 1
   235   145   178 1
   236   151   178 1
   237   145   151 1
   238   145   153 1
   239   145   191 1
   240   151   191 1
   241   153   191 1
   242   159   162 1
   243   162   169 1
   244   181   191 1
   245   159   163 1
   246   159   161 1
   247   146   155 1
   248   146   189 1
   249   146   152 1
   250   146   180 1
   251   563   569 1
   252   148   541 1
   253   148   960 1
   254   184   960 1
   255   541   563 1
   256   541   960 1
   257   541  1330 1
   258   563   960 1
   259   950   960 1
   260   960  1297 1
   261   960  1306 1
   262   960  1330 1
   263  1297  1305 1
   264  1297  1330 1
   265  1297  1303 1
   266  1297  1343 1
   267  1305  1343 1
   268  1330  1343 1
   269   150   158 1
   270   150   190 1
   271   336   349 1
   272   180   189 1
   273   180   186 1
   274   180   336 1
   275   186   336 1
   276   180  1151 1
   277  1138  1151 1
   278   415   454 1
   279   530   539 1
   280   530   564 1
   281   530   573 1
   282   530   536 1
   283   161   164 1
   284   161   167 1
   285   161   168 1
   286   164   174 1
   287   164   176 1
   288   164   170 1
   289   178   191 1
   290   182   192 1
   291   192   529 1
   292   192   538 1
   293   529   575 1
   294   192   562 1
   295   529   535 1
   296   529   537 1
   297   529   562 1
   298   183   383 1
   299   337   370 1
   300   337   383 1
   301   370   383 1
   302   373   383 1
   303   337   343 1
   304   337   345 1
   305   188   563 1
   306   193   270 1
   307   193   274 1
   308   193   288 1
   309   193   199 1
   310   193   272 1
   311   193   294 1
   312   207   294 1
   313   218   292 1
   314   193   290 1
   315   195   285 1
   316   195   292 1
   317   195   268 1
   318   195   198 1
   319   195   275 1
   320   195   277 1
   321   198   265 1
   322   198   275 1
   323   198   277 1
   324   198   281 1
   325   198   283 1
   326   196   286 1
   327   196   291 1
   328   196   197 1
   329   196   267 1
   330   196   276 1
   331   196   278 1
   332   297   311 1
   333   199   264 1
   334   199   274 1
   335   199   280 1
   336   199   272 1
   337   199   292 1
   338   200   291 1
   339   200   263 1
   340   200   271 1
   341   200   273 1
   342   200   279 1
   343   201   252 1
   344   252   641 1
   345   202   251 1
   346   212   239 1
   347   239  1002 1
   348   203   254 1
   349   244   254 1
   350   244   250 1
   351   204  1021 1
   352   205   257 1
   353   247   281 1
   354   206   256 1
   355   228   232 1
   356   228   266 1
   357   232   237 1
   358   232   236 1
   359   228   267 1
   360   209   238 1
   361   227   268 1
   362   227   265 1
   363   227   231 1
   364   210   237 1
   365   211   240 1
   366   213   234 1
   367   226   230 1
   368   226   264 1
   369   230   234 1
   370   226   270 1
   371   230   240 1
   372   214   236 1
   373   236   622 1
   374   215   643 1
   375   600   643 1
   376   216   259 1
   377   217   291 1
   378   303   307 1
   379   304   313 1
   380   307   313 1
   381   307   311 1
   382   313  1080 1
   383   243   249 1
   384   219   260 1
   385   243   255 1
   386   255   260 1
   387   255  1022 1
   388   224   262 1
   389   249   283 1
   390   220   260 1
   391   221   261 1
   392   222   261 1
   393   223   262 1
   394   225   263 1
   395   225   269 1
   396   225   229 1
   397   233   261 1
   398   229   239 1
   399   233  1008 1
   400   979  1008 1
   401   229   233 1
   402   231   238 1
   403   235   262 1
   404   231   235 1
   405   237   619 1
   406   619   646 1
   407   245   286 1
   408   245   305 1
   409   245   279 1
   410   246   280 1
   411   246   285 1
   412   246   308 1
   413   250   288 1
   414   253   256 1
   415   258   259 1
   416   295   310 1
   417   301   306 1
   418   306   310 1
   419   310   315 1
   420   306   316 1
   421   296   312 1
   422   298   315 1
   423   299   316 1
   424   300   314 1
   425   305   315 1
   426   302   309 1
   427   305   309 1
   428   309   316 1
   429   311   698 1
   430  1080  1460 1
   431   312   692 1
   432   314  1076 1
   433  1014  1048 1
   434  1014  1076 1
   435  1014  1053 1
   436   318   324 1
   437   321   324 1
   438   324   332 1
   439   324   335 1
   440   318   320 1
   441   321   327 1
   442   321   329 1
   443   321   331 1
   444   320   326 1
   445   341   350 1
   446   342   350 1
   447   342   382 1
   448   350   382 1
   449   350   722 1
   450   350   756 1
   451   322   330 1
   452   723   733 1
   453   322   328 1
   454   322   333 1
   455   380   755 1
   456   723   755 1
   457   755   761 1
   458   755  1152 1
   459   338   344 1
   460   338   347 1
   461   338   372 1
   462   338   381 1
   463   372   378 1
   464   372   381 1
   465   339   349 1
   466   339   371 1
   467   371   377 1
   468   340   733 1
   469   340  1152 1
   470   376  1152 1
   471  1152  1489 1
   472  1152  1498 1
   473  1152  1522 1
   474  1489  1497 1
   475  1489  1522 1
   476  1489  1535 1
   477  1489  1495 1
   478   343   370 1
   479   343   383 1
   480   358   364 1
   481   358   365 1
   482   358   369 1
   483   345   383 1
   484   356   366 1
   485   356   368 1
   486   356   362 1
   487   349   371 1
   488   349  1138 1
   489   352   358 1
   490   353   356 1
   491   353   360 1
   492   351   353 1
   493   351   354 1
   494   351   355 1
   495   352   354 1
   496   352   357 1
   497   354   361 1
   498   355   357 1
   499   355   363 1
   500   357   367 1
   501   353   359 1
   502   374   384 1
   503   384   754 1
   504   384   730 1
   505   384   721 1
   506   418   422 1
   507   385   480 1
   508   385   466 1
   509   391   466 1
   510   391   472 1
   511   385   391 1
   512   385   462 1
   513   385   464 1
   514   391   456 1
   515   391   464 1
   516   418   456 1
   517   418   462 1
   518   385   482 1
   519   385   486 1
   520   385   581 1
   521   391   484 1
   522   386   392 1
   523   386   463 1
   524   386   481 1
   525   386   461 1
   526   386   465 1
   527   386   479 1
   528   386   485 1
   529   387   460 1
   530   387   467 1
   531   387   469 1
   532   387   477 1
   533   387   484 1
   534   410   484 1
   535   387   390 1
   536   388   470 1
   537   388   478 1
   538   388   389 1
   539   388   459 1
   540   388   483 1
   541   388   468 1
   542   389   470 1
   543   389   458 1
   544   389   474 1
   545   389   476 1
   546   389   468 1
   547   390   467 1
   548   390   469 1
   549   390   677 1
   550   578   677 1
   551   578   584 1
   552   578   655 1
   553   578   657 1
   554   390   473 1
   555   578   673 1
   556   390   457 1
   557   390   475 1
   558   390   578 1
   559   441   475 1
   560   441   671 1
   561   578   671 1
   562   578   653 1
   563   392   463 1
   564   392   483 1
   565   409   483 1
   566   392   471 1
   567   392   465 1
   568   400   485 1
   569   392   455 1
   570   393   444 1
   571   443   450 1
   572   394   443 1
   573   433   443 1
   574   403   432 1
   575   395   446 1
   576   396  1213 1
   577  1213  1216 1
   578   416   454 1
   579   427   454 1
   580   397   449 1
   581   398   448 1
   582   581   668 1
   583   581   662 1
   584   399   486 1
   585   486   581 1
   586   581   666 1
   587   581   650 1
   588   581   660 1
   589   482   632 1
   590   423   427 1
   591   401   430 1
   592   423   430 1
   593   424   428 1
   594   420   458 1
   595   402   429 1
   596   420   424 1
   597   420   459 1
   598   424   429 1
   599  1190  1200 1
   600   404   431 1
   601   431  1194 1
   602  1173  1194 1
   603  1190  1194 1
   604   405   426 1
   605   406   428 1
   606   434   440 1
   607   411   452 1
   608   419   460 1
   609   419   423 1
   610   419   457 1
   611   412   452 1
   612   413   453 1
   613   417   421 1
   614   417   461 1
   615   417   455 1
   616   414   453 1
   617   421   425 1
   618   425  1200 1
   619   425   453 1
   620   421   431 1
   621   422   432 1
   622   422   426 1
   623   435   441 1
   624   447   452 1
   625   435   447 1
   626   435  1405 1
   627   447  1214 1
   628  1405  1408 1
   629   436   442 1
   630   436   446 1
   631   436   640 1
   632   442   480 1
   633   442   668 1
   634   437   478 1
   635   497   501 1
   636   497   507 1
   637   437   471 1
   638   437   497 1
   639   438   500 1
   640   438   472 1
   641   438   477 1
   642   635   642 1
   643   439   473 1
   644   439   625 1
   645   439   673 1
   646   449   625 1
   647   625   635 1
   648   440   474 1
   649   632   666 1
   650   444   626 1
   651   626   632 1
   652   445   448 1
   653   509   511 1
   654   509   514 1
   655   509   515 1
   656   514   522 1
   657   514   525 1
   658   514   520 1
   659   515   526 1
   660   501   508 1
   661   494   501 1
   662   502   507 1
   663   487   502 1
   664   488   504 1
   665   489   503 1
   666   495   499 1
   667   499   503 1
   668   499   505 1
   669   547   549 1
   670   547   555 1
   671   490   507 1
   672   491   508 1
   673   493   498 1
   674   498   508 1
   675   498   502 1
   676   492   506 1
   677   496   505 1
   678   505  1272 1
   679  1256  1272 1
   680   512   518 1
   681   510   512 1
   682   510   707 1
   683   701   707 1
   684   707   718 1
   685   512   703 1
   686   701   703 1
   687   701   706 1
   688   510   516 1
   689   516   524 1
   690   513   519 1
   691   513   516 1
   692   513   521 1
   693   513   523 1
   694   516   527 1
   695   517   703 1
   696   542   574 1
   697   532  1344 1
   698   568  1344 1
   699   533   542 1
   700   534   542 1
   701   534   574 1
   702   535   575 1
   703   537   575 1
   704   562   575 1
   705   565   575 1
   706   535   562 1
   707   546   553 1
   708  1335  1535 1
   709  1497  1535 1
   710  1522  1535 1
   711  1525  1535 1
   712   543   546 1
   713   545   548 1
   714   543   545 1
   715   545   551 1
   716   545   552 1
   717   543   547 1
   718   544   546 1
   719   550   557 1
   720   544   549 1
   721   544   550 1
   722   549   559 1
   723   550   556 1
   724   550   561 1
   725   548   554 1
   726   548   558 1
   727   548   560 1
   728   564   720 1
   729   570   720 1
   730   564   570 1
   731   564   573 1
   732   564  1535 1
   733   566   576 1
   734   721   754 1
   735   567   767 1
   736   721   729 1
   737   721   767 1
   738   729   767 1
   739   757   767 1
   740   721   727 1
   741   724  1536 1
   742   760  1536 1
   743   577   654 1
   744   577   672 1
   745   577   583 1
   746   577   656 1
   747   577   658 1
   748   577   678 1
   749   591   678 1
   750   577   674 1
   751   579   676 1
   752   579   652 1
   753   579   669 1
   754   579   582 1
   755   579   659 1
   756   579   661 1
   757   593   622 1
   758   616   620 1
   759   580   662 1
   760   580   670 1
   761   580   581 1
   762   580   651 1
   763   580   660 1
   764   612   616 1
   765   612   650 1
   766   612   651 1
   767   616   621 1
   768   580   675 1
   769   582   659 1
   770   582   661 1
   771   582   649 1
   772   582   665 1
   773   582   667 1
   774   610   614 1
   775   610   654 1
   776   583   664 1
   777   583   676 1
   778   583   648 1
   779   610   648 1
   780   583   656 1
   781   583   658 1
   782   584   647 1
   783   584   655 1
   784   584   657 1
   785   584   663 1
   786   584   675 1
   787   601   675 1
   788   585   636 1
   789   586   635 1
   790   596   623 1
   791   623  1386 1
   792   587   638 1
   793   628   634 1
   794   628   638 1
   795   634   672 1
   796   588  1405 1
   797   607   646 1
   798   608   646 1
   799   589   641 1
   800   631   665 1
   801   590   640 1
   802   598   620 1
   803   592   677 1
   804   594   621 1
   805   595   624 1
   806   597   618 1
   807   742   748 1
   808   742   749 1
   809   742   753 1
   810   602   676 1
   811   702   708 1
   812   708   716 1
   813   708   719 1
   814   702   704 1
   815   705   708 1
   816   627   633 1
   817   603   644 1
   818   627   639 1
   819   639   644 1
   820   705   711 1
   821   705   713 1
   822   705   715 1
   823   639  1406 1
   824   633   667 1
   825   604   644 1
   826   613   623 1
   827   617  1392 1
   828   605   645 1
   829   613   617 1
   830   617   645 1
   831   606   645 1
   832   609   647 1
   833   609   653 1
   834   609   613 1
   835   611   652 1
   836   615   619 1
   837   611   615 1
   838   615   622 1
   839   611   649 1
   840   614   618 1
   841   614   624 1
   842   629   670 1
   843   629   689 1
   844   629   663 1
   845   630   664 1
   846   630   692 1
   847   630   669 1
   848   637   640 1
   849   679   694 1
   850   682   699 1
   851   680   696 1
   852   681   695 1
   853   687   691 1
   854   691   695 1
   855   691   697 1
   856   683   700 1
   857   693   700 1
   858   686   693 1
   859   689   693 1
   860   689   699 1
   861   684   698 1
   862   698  1460 1
   863  1351  1432 1
   864  1398  1432 1
   865  1398  1460 1
   866  1351  1426 1
   867  1351  1416 1
   868  1351  1424 1
   869  1398  1437 1
   870  1351  1444 1
   871   685   690 1
   872   690   694 1
   873   690   700 1
   874   694   699 1
   875   688   697 1
   876   697  1464 1
   877   704   710 1
   878   725   734 1
   879   734   766 1
   880   706   714 1
   881   706   712 1
   882   706   717 1
   883   722   728 1
   884   722   731 1
   885   722   756 1
   886   722   765 1
   887   756   762 1
   888   756   765 1
   889   726   734 1
   890   726   766 1
   891   727   754 1
   892   736   742 1
   893   727   767 1
   894   735   738 1
   895   735   739 1
   896   736   738 1
   897   736   741 1
   898   738   745 1
   899   739   741 1
   900   741   751 1
   901   735   737 1
   902   739   747 1
   903   737   740 1
   904   737   744 1
   905   737   743 1
   906   740   752 1
   907   740   746 1
   908   740   750 1
   909   754   767 1
   910   758   768 1
   911   965  1052 1
   912   769   775 1
   913   769   850 1
   914   965  1046 1
   915   769   846 1
   916   769   848 1
   917   769   864 1
   918   769   866 1
   919   769   870 1
   920   769   965 1
   921   870   965 1
   922   965  1050 1
   923   965  1034 1
   924   965  1044 1
   925   866  1016 1
   926   770   847 1
   927   770   776 1
   928   770   865 1
   929   770   845 1
   930   770   849 1
   931   770   863 1
   932   770   869 1
   933   771   844 1
   934   771   851 1
   935   771   853 1
   936   771   861 1
   937   771   868 1
   938   794   868 1
   939   771   774 1
   940   772   854 1
   941   772   773 1
   942   772   843 1
   943   772   867 1
   944   793   867 1
   945   772   862 1
   946   772   852 1
   947   784   869 1
   948   773   854 1
   949   773   842 1
   950   773   858 1
   951   773   860 1
   952   824   858 1
   953   773   852 1
   954   774   851 1
   955   774   853 1
   956   774  1061 1
   957   774   857 1
   958   774   841 1
   959   774   859 1
   960   825   859 1
   961   825  1055 1
   962   774   962 1
   963   822   884 1
   964   775   850 1
   965   775   856 1
   966   822   856 1
   967   775   840 1
   968   775   848 1
   969   775   868 1
   970   822   861 1
   971   776   847 1
   972   821   881 1
   973   776   867 1
   974   776   855 1
   975   821   855 1
   976   821   862 1
   977   776   849 1
   978   776   839 1
   979   777   828 1
   980   827   834 1
   981   778   827 1
   982   817   827 1
   983   787   816 1
   984   779   830 1
   985   807   814 1
   986   800   838 1
   987   807   811 1
   988   811   838 1
   989   781   833 1
   990   782   832 1
   991   783   870 1
   992   785   814 1
   993   808   812 1
   994   804   842 1
   995   786   813 1
   996   804   808 1
   997   804   843 1
   998   808   813 1
   999   813  1195 1
  1000   788   815 1
  1001   789   810 1
  1002   790   812 1
  1003   812  1198 1
  1004   818   824 1
  1005   791  1219 1
  1006   818  1218 1
  1007  1176  1219 1
  1008  1211  1218 1
  1009  1218  1219 1
  1010   792   835 1
  1011   834   835 1
  1012   795   836 1
  1013   803   844 1
  1014   803   807 1
  1015   803   841 1
  1016   796   836 1
  1017   797   837 1
  1018   801   805 1
  1019   801   845 1
  1020   801   839 1
  1021   798   837 1
  1022   799   838 1
  1023   914   923 1
  1024   914   948 1
  1025   914   957 1
  1026   914   920 1
  1027   806   816 1
  1028   806   810 1
  1029   802   806 1
  1030   802   840 1
  1031   802   846 1
  1032   805   809 1
  1033   809   837 1
  1034   805   815 1
  1035   819   825 1
  1036   831   836 1
  1037   819   831 1
  1038   820   826 1
  1039   820   830 1
  1040   820  1024 1
  1041   826  1052 1
  1042   826   864 1
  1043  1019  1026 1
  1044   823   857 1
  1045   823  1009 1
  1046   823  1057 1
  1047   833  1009 1
  1048  1009  1019 1
  1049  1016  1050 1
  1050   828  1010 1
  1051  1010  1016 1
  1052  1010  1410 1
  1053  1410  1411 1
  1054   828  1217 1
  1055   927   930 1
  1056   929   932 1
  1057   927   929 1
  1058   929   935 1
  1059   929   936 1
  1060   927   931 1
  1061   893   895 1
  1062   893   898 1
  1063   893   899 1
  1064   898   906 1
  1065   898   909 1
  1066   898   904 1
  1067   899   910 1
  1068   886   891 1
  1069   871   886 1
  1070   873   887 1
  1071   879   883 1
  1072   883   887 1
  1073   887  1274 1
  1074   883   889 1
  1075   931   933 1
  1076   881   885 1
  1077   931   939 1
  1078   874   891 1
  1079   881   891 1
  1080   875   892 1
  1081   877   882 1
  1082   882   892 1
  1083   882   886 1
  1084   876   890 1
  1085   885   892 1
  1086   878   885 1
  1087   880   889 1
  1088   896   902 1
  1089   894   896 1
  1090   894  1091 1
  1091  1085  1091 1
  1092  1085  1090 1
  1093  1091  1102 1
  1094   896  1087 1
  1095  1085  1087 1
  1096   894   900 1
  1097   900   908 1
  1098   897   900 1
  1099   897   903 1
  1100   897   905 1
  1101   897   907 1
  1102   900   911 1
  1103   901  1087 1
  1104   926  1488 1
  1105   926   958 1
  1106   926  1332 1
  1107  1488  1501 1
  1108   926  1298 1
  1109   956  1331 1
  1110   912   925 1
  1111   915   925 1
  1112   915   947 1
  1113   913   946 1
  1114   913   919 1
  1115   913   921 1
  1116   913   959 1
  1117   946   959 1
  1118   916  1309 1
  1119   955  1309 1
  1120   955  1331 1
  1121  1296  1309 1
  1122  1299  1309 1
  1123  1299  1331 1
  1124  1309  1331 1
  1125  1331  1337 1
  1126   917   926 1
  1127   918   926 1
  1128   918   958 1
  1129   919   946 1
  1130   919   959 1
  1131   921   959 1
  1132   930   937 1
  1133   949   959 1
  1134  1298  1307 1
  1135  1298  1332 1
  1136  1298  1341 1
  1137  1298  1304 1
  1138   947   953 1
  1139   925   947 1
  1140   928   930 1
  1141   934   941 1
  1142   928   933 1
  1143   928   934 1
  1144   933   943 1
  1145   934   940 1
  1146   934   945 1
  1147   932   938 1
  1148   932   942 1
  1149   932   944 1
  1150   948  1104 1
  1151   954  1104 1
  1152   948   954 1
  1153   948   957 1
  1154  1105  1138 1
  1155   951  1151 1
  1156  1105  1113 1
  1157  1105  1151 1
  1158  1113  1151 1
  1159  1141  1151 1
  1160  1105  1111 1
  1161  1332  1488 1
  1162  1332  1338 1
  1163  1108  1501 1
  1164  1501  1523 1
  1165  1332  1341 1
  1166   961  1056 1
  1167   967  1048 1
  1168   967  1060 1
  1169   967  1032 1
  1170   961   967 1
  1171   961  1038 1
  1172   961  1040 1
  1173   961  1042 1
  1174   961  1062 1
  1175   967  1040 1
  1176   967  1042 1
  1177   975  1062 1
  1178   961  1058 1
  1179   962  1061 1
  1180   962   968 1
  1181   962  1039 1
  1182   962  1041 1
  1183   993  1031 1
  1184   962  1057 1
  1185   993   997 1
  1186   962  1055 1
  1187   962  1037 1
  1188   993  1037 1
  1189   963  1060 1
  1190   963  1036 1
  1191   963  1053 1
  1192   963   966 1
  1193   963  1043 1
  1194   963  1045 1
  1195   966  1043 1
  1196   966  1045 1
  1197   966  1049 1
  1198   966  1033 1
  1199   966  1051 1
  1200   964  1046 1
  1201   964  1054 1
  1202   964   965 1
  1203   964  1035 1
  1204   964  1044 1
  1205   964  1059 1
  1206   968  1031 1
  1207   968  1039 1
  1208   968  1041 1
  1209   968  1047 1
  1210   968  1059 1
  1211   985  1059 1
  1212   969  1020 1
  1213  1020  1409 1
  1214   970  1019 1
  1215   980  1007 1
  1216   971  1022 1
  1217  1012  1018 1
  1218  1012  1022 1
  1219  1018  1056 1
  1220   973  1025 1
  1221   991  1030 1
  1222   992  1030 1
  1223   974  1024 1
  1224   982  1004 1
  1225  1004  1390 1
  1226   976  1061 1
  1227   995  1036 1
  1228   999  1003 1
  1229   977  1006 1
  1230   995   999 1
  1231   999  1006 1
  1232   995  1033 1
  1233  1000  1004 1
  1234  1005  1387 1
  1235   978  1005 1
  1236  1000  1005 1
  1237   981  1002 1
  1238   994   998 1
  1239   994  1032 1
  1240   994  1038 1
  1241   983  1411 1
  1242  1368  1411 1
  1243   984  1027 1
  1244   986  1060 1
  1245  1086  1088 1
  1246  1086  1092 1
  1247  1092  1100 1
  1248  1092  1103 1
  1249  1088  1094 1
  1250   987  1028 1
  1251   988  1028 1
  1252  1011  1017 1
  1253  1011  1023 1
  1254   989  1029 1
  1255   990  1029 1
  1256   996  1034 1
  1257   996  1035 1
  1258   996  1000 1
  1259   997  1007 1
  1260   997  1001 1
  1261  1001  1029 1
  1262   998  1002 1
  1263   998  1008 1
  1264  1003  1030 1
  1265  1077  1084 1
  1266  1013  1054 1
  1267  1013  1073 1
  1268  1070  1077 1
  1269  1073  1077 1
  1270  1073  1083 1
  1271  1013  1047 1
  1272  1015  1049 1
  1273  1017  1051 1
  1274  1089  1092 1
  1275  1023  1028 1
  1276  1089  1095 1
  1277  1089  1097 1
  1278  1089  1099 1
  1279  1026  1027 1
  1280  1063  1078 1
  1281  1066  1083 1
  1282  1064  1080 1
  1283  1065  1079 1
  1284  1079  1466 1
  1285  1067  1084 1
  1286  1069  1074 1
  1287  1074  1078 1
  1288  1074  1084 1
  1289  1078  1083 1
  1290  1068  1082 1
  1291  1071  1075 1
  1292  1090  1098 1
  1293  1075  1079 1
  1294  1090  1096 1
  1295  1090  1101 1
  1296  1075  1081 1
  1297  1072  1081 1
  1298  1148  1523 1
  1299  1109  1118 1
  1300  1118  1150 1
  1301  1118  1490 1
  1302  1118  1524 1
  1303  1147  1501 1
  1304  1491  1501 1
  1305  1147  1523 1
  1306  1491  1523 1
  1307  1104  1117 1
  1308  1117  1139 1
  1309  1106  1112 1
  1310  1106  1115 1
  1311  1106  1140 1
  1312  1106  1149 1
  1313  1140  1146 1
  1314  1140  1149 1
  1315  1107  1117 1
  1316  1107  1139 1
  1317  1139  1145 1
  1318  1110  1118 1
  1319  1110  1150 1
  1320  1111  1138 1
  1321  1120  1126 1
  1322  1111  1151 1
  1323  1119  1122 1
  1324  1119  1123 1
  1325  1120  1122 1
  1326  1120  1125 1
  1327  1122  1129 1
  1328  1123  1125 1
  1329  1125  1135 1
  1330  1119  1121 1
  1331  1123  1131 1
  1332  1121  1124 1
  1333  1121  1128 1
  1334  1121  1127 1
  1335  1124  1136 1
  1336  1124  1130 1
  1337  1124  1134 1
  1338  1126  1132 1
  1339  1126  1133 1
  1340  1126  1137 1
  1341  1142  1152 1
  1342  1153  1234 1
  1343  1349  1430 1
  1344  1153  1230 1
  1345  1153  1248 1
  1346  1153  1250 1
  1347  1153  1254 1
  1348  1153  1349 1
  1349  1210  1248 1
  1350  1210  1436 1
  1351  1250  1400 1
  1352  1254  1349 1
  1353  1349  1434 1
  1354  1349  1436 1
  1355  1400  1434 1
  1356  1349  1418 1
  1357  1153  1159 1
  1358  1153  1232 1
  1359  1349  1428 1
  1360  1154  1229 1
  1361  1154  1231 1
  1362  1154  1249 1
  1363  1154  1233 1
  1364  1154  1253 1
  1365  1168  1253 1
  1366  1154  1160 1
  1367  1154  1247 1
  1368  1159  1234 1
  1369  1159  1224 1
  1370  1206  1268 1
  1371  1155  1235 1
  1372  1155  1245 1
  1373  1155  1252 1
  1374  1159  1240 1
  1375  1159  1252 1
  1376  1178  1252 1
  1377  1206  1240 1
  1378  1206  1245 1
  1379  1159  1232 1
  1380  1155  1228 1
  1381  1155  1237 1
  1382  1155  1158 1
  1383  1156  1238 1
  1384  1156  1157 1
  1385  1156  1227 1
  1386  1156  1251 1
  1387  1177  1251 1
  1388  1156  1246 1
  1389  1156  1236 1
  1390  1157  1238 1
  1391  1157  1226 1
  1392  1157  1244 1
  1393  1157  1236 1
  1394  1157  1242 1
  1395  1158  1235 1
  1396  1158  1241 1
  1397  1158  1225 1
  1398  1158  1237 1
  1399  1158  1243 1
  1400  1158  1445 1
  1401  1209  1243 1
  1402  1209  1439 1
  1403  1158  1346 1
  1404  1160  1251 1
  1405  1160  1239 1
  1406  1160  1231 1
  1407  1182  1221 1
  1408  1160  1233 1
  1409  1160  1223 1
  1410  1264  1273 1
  1411  1161  1212 1
  1412  1162  1211 1
  1413  1201  1211 1
  1414  1171  1200 1
  1415  1163  1214 1
  1416  1191  1198 1
  1417  1165  1217 1
  1418  1191  1195 1
  1419  1166  1216 1
  1420  1167  1254 1
  1421  1169  1198 1
  1422  1315  1323 1
  1423  1315  1317 1
  1424  1188  1226 1
  1425  1170  1197 1
  1426  1174  1196 1
  1427  1188  1192 1
  1428  1188  1227 1
  1429  1192  1196 1
  1430  1192  1197 1
  1431  1189  1193 1
  1432  1172  1199 1
  1433  1189  1199 1
  1434  1202  1208 1
  1435  1179  1220 1
  1436  1180  1220 1
  1437  1181  1221 1
  1438  1183  1222 1
  1439  1184  1222 1
  1440  1195  1222 1
  1441  1185  1229 1
  1442  1193  1221 1
  1443  1185  1223 1
  1444  1185  1189 1
  1445  1186  1190 1
  1446  1186  1224 1
  1447  1186  1230 1
  1448  1187  1191 1
  1449  1187  1225 1
  1450  1187  1228 1
  1451  1203  1209 1
  1452  1215  1220 1
  1453  1203  1215 1
  1454  1204  1214 1
  1455  1204  1408 1
  1456  1204  1210 1
  1457  1205  1265 1
  1458  1205  1239 1
  1459  1205  1246 1
  1460  1403  1410 1
  1461  1207  1241 1
  1462  1207  1393 1
  1463  1207  1441 1
  1464  1217  1393 1
  1465  1393  1403 1
  1466  1208  1242 1
  1467  1277  1279 1
  1468  1277  1282 1
  1469  1282  1290 1
  1470  1282  1288 1
  1471  1277  1283 1
  1472  1282  1293 1
  1473  1394  1400 1
  1474  1212  1394 1
  1475  1259  1276 1
  1476  1261  1266 1
  1477  1266  1276 1
  1478  1270  1275 1
  1479  1255  1270 1
  1480  1266  1270 1
  1481  1257  1271 1
  1482  1265  1269 1
  1483  1317  1327 1
  1484  1258  1275 1
  1485  1265  1275 1
  1486  1260  1274 1
  1487  1262  1269 1
  1488  1263  1267 1
  1489  1267  1271 1
  1490  1267  1273 1
  1491  1318  1325 1
  1492  1312  1318 1
  1493  1318  1324 1
  1494  1318  1329 1
  1495  1269  1276 1
  1496  1312  1314 1
  1497  1312  1317 1
  1498  1278  1280 1
  1499  1281  1287 1
  1500  1278  1284 1
  1501  1278  1475 1
  1502  1281  1284 1
  1503  1281  1289 1
  1504  1281  1291 1
  1505  1284  1292 1
  1506  1284  1295 1
  1507  1475  1486 1
  1508  1280  1286 1
  1509  1280  1471 1
  1510  1469  1471 1
  1511  1469  1474 1
  1512  1469  1475 1
  1513  1283  1294 1
  1514  1285  1471 1
  1515  1301  1310 1
  1516  1302  1310 1
  1517  1302  1342 1
  1518  1303  1330 1
  1519  1303  1343 1
  1520  1333  1343 1
  1521  1310  1342 1
  1522  1314  1321 1
  1523  1313  1316 1
  1524  1311  1315 1
  1525  1311  1313 1
  1526  1311  1314 1
  1527  1313  1319 1
  1528  1313  1320 1
  1529  1316  1322 1
  1530  1316  1326 1
  1531  1316  1328 1
  1532  1334  1344 1
  1533  1338  1488 1
  1534  1345  1351 1
  1535  1345  1426 1
  1536  1345  1422 1
  1537  1345  1424 1
  1538  1345  1440 1
  1539  1345  1442 1
  1540  1345  1446 1
  1541  1346  1423 1
  1542  1346  1352 1
  1543  1346  1441 1
  1544  1377  1381 1
  1545  1346  1439 1
  1546  1346  1445 1
  1547  1346  1421 1
  1548  1346  1425 1
  1549  1377  1415 1
  1550  1377  1421 1
  1551  1347  1420 1
  1552  1347  1437 1
  1553  1347  1427 1
  1554  1347  1429 1
  1555  1347  1444 1
  1556  1370  1444 1
  1557  1347  1350 1
  1558  1348  1430 1
  1559  1348  1349 1
  1560  1348  1419 1
  1561  1352  1423 1
  1562  1397  1457 1
  1563  1348  1438 1
  1564  1348  1443 1
  1565  1352  1431 1
  1566  1352  1443 1
  1567  1369  1443 1
  1568  1397  1431 1
  1569  1397  1438 1
  1570  1348  1428 1
  1571  1352  1415 1
  1572  1352  1425 1
  1573  1350  1427 1
  1574  1350  1429 1
  1575  1350  1433 1
  1576  1350  1417 1
  1577  1350  1435 1
  1578  1401  1435 1
  1579  1372  1412 1
  1580  1353  1404 1
  1581  1354  1403 1
  1582  1355  1406 1
  1583  1396  1402 1
  1584  1396  1406 1
  1585  1402  1440 1
  1586  1376  1414 1
  1587  1357  1409 1
  1588  1358  1408 1
  1589  1366  1388 1
  1590  1359  1446 1
  1591  1360  1445 1
  1592  1379  1420 1
  1593  1379  1383 1
  1594  1361  1390 1
  1595  1379  1417 1
  1596  1362  1389 1
  1597  1363  1392 1
  1598  1364  1391 1
  1599  1382  1392 1
  1600  1365  1386 1
  1601  1378  1382 1
  1602  1378  1416 1
  1603  1382  1386 1
  1604  1378  1422 1
  1605  1395  1401 1
  1606  1371  1412 1
  1607  1395  1407 1
  1608  1407  1412 1
  1609  1373  1413 1
  1610  1374  1413 1
  1611  1375  1414 1
  1612  1490  1499 1
  1613  1490  1524 1
  1614  1524  1530 1
  1615  1490  1496 1
  1616  1490  1533 1
  1617  1524  1533 1
  1618  1384  1388 1
  1619  1380  1384 1
  1620  1380  1418 1
  1621  1380  1419 1
  1622  1384  1389 1
  1623  1381  1385 1
  1624  1385  1413 1
  1625  1381  1391 1
  1626  1383  1387 1
  1627  1387  1414 1
  1628  1383  1390 1
  1629  1399  1433 1
  1630  1503  1506 1
  1631  1507  1509 1
  1632  1505  1508 1
  1633  1507  1515 1
  1634  1505  1512 1
  1635  1503  1505 1
  1636  1503  1507 1
  1637  1505  1511 1
  1638  1455  1459 1
  1639  1474  1482 1
  1640  1474  1485 1
  1641  1449  1463 1
  1642  1459  1463 1
  1643  1474  1480 1
  1644  1459  1465 1
  1645  1457  1461 1
  1646  1447  1462 1
  1647  1450  1467 1
  1648  1457  1467 1
  1649  1462  1467 1
  1650  1448  1464 1
  1651  1451  1468 1
  1652  1453  1458 1
  1653  1458  1468 1
  1654  1458  1462 1
  1655  1452  1466 1
  1656  1461  1468 1
  1657  1454  1461 1
  1658  1456  1465 1
  1659  1470  1472 1
  1660  1472  1478 1
  1661  1470  1476 1
  1662  1473  1476 1
  1663  1473  1479 1
  1664  1473  1481 1
  1665  1473  1483 1
  1666  1476  1484 1
  1667  1476  1487 1
  1668  1493  1502 1
  1669  1502  1534 1
  1670  1494  1502 1
  1671  1494  1534 1
  1672  1495  1522 1
  1673  1495  1535 1
  1674  1504  1506 1
  1675  1504  1509 1
  1676  1504  1510 1
  1677  1506  1513 1
  1678  1510  1516 1
  1679  1510  1517 1
  1680  1510  1521 1
  1681  1509  1519 1
  1682  1508  1514 1
  1683  1508  1520 1
  1684  1508  1518 1
  1685  1523  1529 1
  1686  1526  1536 1
