@<TRIPOS>MOLECULE
Lattice="48.028173 0.0 0.0 -21.065805799347643 43.13043493897204 0.0 -12.937594211639794 -21.717605374402837 39.33082132276351" Properties=species:S:1:pos:R:3 i=1 E=-1362.4949280418 pbc="T T T"
 3861 4209 0 0 0
SMALL
GASTEIGER

@<TRIPOS>ATOM
      1 TI         -2.8554    2.2298   11.2464 Ti      1  UNL1        0.0000
      2 TI          7.9750    5.1110    1.8816 Ti      1  UNL1        0.0000
      3 TI          1.2413   -1.7064    9.4264 Ti      1  UNL1        0.0000
      4 TI          2.7524    7.4557    3.6534 Ti      1  UNL1        0.0000
      5 TI          1.7539    9.1340    1.7490 Ti      1  UNL1        0.0000
      6 TI          3.1295   -1.9608   11.3798 Ti      1  UNL1        0.0000
      7 TI         -1.9062    0.4939    9.3549 Ti      1  UNL1        0.0000
      8 TI          5.9872    5.4135    3.7291 Ti      1  UNL1        0.0000
      9 H           3.7545    1.5332    8.6022 H       1  UNL1        0.0000
     10 H          -0.1863   -4.2223    6.4832 H       1  UNL1        0.0000
     11 H           4.7863   10.8562    4.6619 H       1  UNL1        0.0000
     12 H          -2.3536    6.1268   11.0269 H       1  UNL1        0.0000
     13 H           8.7838    1.2049    2.2023 H       1  UNL1        0.0000
     14 H          -6.8153    1.4731   10.8639 H       1  UNL1        0.0000
     15 H          11.3572    7.1153    2.0822 H       1  UNL1        0.0000
     16 H           4.1051   -5.9953   10.9939 H       1  UNL1        0.0000
     17 H          -2.3047    8.5441    2.0711 H       1  UNL1        0.0000
     18 H           4.7277    3.0497    6.8490 H       1  UNL1        0.0000
     19 H           0.0359    3.6814    8.4012 H       1  UNL1        0.0000
     20 H          -3.6653   -1.6940    6.3606 H       1  UNL1        0.0000
     21 H           2.2483    7.4972   -0.1241 H       1  UNL1        0.0000
     22 H           6.0995    4.8683    0.1817 H       1  UNL1        0.0000
     23 H           3.6394   -2.6279    5.8687 H       1  UNL1        0.0000
     24 H           1.0290    9.2927    7.2723 H       1  UNL1        0.0000
     25 H          -5.9789    3.8825    8.9990 H       1  UNL1        0.0000
     26 H          10.7298    3.0267    4.1876 H       1  UNL1        0.0000
     27 H          -3.6778    2.4351    5.6652 H       1  UNL1        0.0000
     28 H          -1.3462   10.9619    4.1022 H       1  UNL1        0.0000
     29 H           2.1461   12.2368    2.6045 H       1  UNL1        0.0000
     30 H           8.6260   -0.8139    3.4048 H      54  UNL54       0.0000
     31 H           4.8451    7.1358    2.3148 H       1  UNL1        0.0000
     32 H           0.1605    0.1420   10.7200 H       1  UNL1        0.0000
     33 H           7.3642   -0.0259    9.7694 H       1  UNL1        0.0000
     34 H           5.8831   -0.4950   10.5168 H       1  UNL1        0.0000
     35 H           7.9383    4.4077    8.6705 H       1  UNL1        0.0000
     36 H           7.3686    4.7663    7.0520 H       1  UNL1        0.0000
     37 H           6.8754   -4.9808    9.5794 H       1  UNL1        0.0000
     38 H           5.5962   -3.8802   10.0368 H       1  UNL1        0.0000
     39 H           1.4252    1.8743    9.3615 H       1  UNL1        0.0000
     40 H           1.0083    5.2030    6.6470 H       1  UNL1        0.0000
     41 H           6.0318    8.8694    3.8665 H       1  UNL1        0.0000
     42 H          -7.7320    8.8902    4.6894 H      54  UNL54       0.0000
     43 C           8.5531    4.3697    4.7451 C.3     1  UNL1        0.0000
     44 C          -3.8160    2.4911    8.3994 C.3     1  UNL1        0.0000
     45 C           3.8218   -2.7171    8.5017 C.3     1  UNL1        0.0000
     46 C           0.8163    9.4262    4.6127 C.3     1  UNL1        0.0000
     47 C           9.4491    3.7654    5.7403 C.ar    1  UNL1        0.0000
     48 C          -4.7479    3.1162    7.4223 C.2     1  UNL1        0.0000
     49 C           4.7619   -3.3315    7.5545 C.2     1  UNL1        0.0000
     50 C          -0.0735   10.0730    5.6125 C.ar    1  UNL1        0.0000
     51 C           9.2003    3.8403    7.1467 C.ar    1  UNL1        0.0000
     52 C          -4.5315    2.9962    6.0343 C.3     1  UNL1        0.0000
     53 C           5.8914   -4.0918    8.0076 C.2     1  UNL1        0.0000
     54 C          -1.1682   10.8460    5.1676 C.ar    1  UNL1        0.0000
     55 C           0.1810    9.9022    6.9674 C.ar    1  UNL1        0.0000
     56 C           4.5142   -3.1994    6.1706 C.3     1  UNL1        0.0000
     57 C          10.5828    3.0664    5.2646 C.ar    1  UNL1        0.0000
     58 C          -5.8481    3.8086    7.9210 C.2     1  UNL1        0.0000
     59 C           2.9250    4.2161    6.6500 C.ar    1  UNL1        0.0000
     60 C           1.8431    2.5278    8.5977 C.ar    1  UNL1        0.0000
     61 C           6.4706    9.5123    4.6279 C.ar    1  UNL1        0.0000
     62 C          -1.8677   -2.8736    6.5220 C.2     1  UNL1        0.0000
     63 C           8.7648    1.2840    0.0582 C.2     1  UNL1        0.0000
     64 C           2.2951   13.0756    0.0832 C.2     1  UNL1        0.0000
     65 C          11.2493    7.0471   -0.0678 C.2     1  UNL1        0.0000
     66 C          -2.1091    8.5895   -0.0872 C.2     1  UNL1        0.0000
     67 C           3.4992    5.1125    5.6180 C.3     1  UNL1        0.0000
     68 C          -1.2569   -1.9819    7.5361 C.2     1  UNL1        0.0000
     69 C           8.6290    2.7388    0.0350 C.2     1  UNL1        0.0000
     70 C           2.2024   11.6421    0.0457 C.2     1  UNL1        0.0000
     71 C           9.9514    6.4303   -0.0210 C.2     1  UNL1        0.0000
     72 C          -0.7067    9.0039   -0.0628 C.2     1  UNL1        0.0000
     73 C           1.5973    4.3981    7.0816 C.ar    1  UNL1        0.0000
     74 C           3.1628    2.3379    8.1690 C.ar    1  UNL1        0.0000
     75 C           5.7695   10.6392    5.0759 C.ar    1  UNL1        0.0000
     76 C          -1.1712   -4.0116    6.0726 C.3     1  UNL1        0.0000
     77 C           8.8042    0.6149    1.2879 C.3     1  UNL1        0.0000
     78 C          -2.3426    6.7152   11.9408 C.ar    1  UNL1        0.0000
     79 C          11.9046    7.3219    1.1661 C.3     1  UNL1        0.0000
     80 C          -7.3768    1.2938   11.7793 C.3     1  UNL1        0.0000
     81 C           7.7379    9.2120    5.1429 C.ar    1  UNL1        0.0000
     82 C          -3.1436   -2.5795    6.0036 C.3     1  UNL1        0.0000
     83 C           3.7053    3.1796    7.1974 C.ar    1  UNL1        0.0000
     84 C           1.0598    3.5536    8.0540 C.ar    1  UNL1        0.0000
     85 C           7.3089    0.2494   11.7938 C.ar    1  UNL1        0.0000
     86 C          -2.8062    8.3591    1.1253 C.3     1  UNL1        0.0000
     87 C           4.1467   -6.5225   11.9429 C.3     1  UNL1        0.0000
     88 C           2.3089   13.8268    1.3125 C.3     1  UNL1        0.0000
     89 N           2.3639   13.2279    2.5506 N.3     1  UNL1        0.0000
     90 N           6.7299    0.0666   10.5548 N.pl3   1  UNL1        0.0000
     91 N           8.1194    4.4866    7.6780 N.pl3   1  UNL1        0.0000
     92 N           6.2224   -4.2500    9.3250 N.pl3   1  UNL1        0.0000
     93 O           7.3767    4.7748    5.1109 O.3     1  UNL1        0.0000
     94 O          -3.0470    1.5403    8.0011 O.3     1  UNL1        0.0000
     95 O           4.2032   -2.5927    9.7228 O.3     1  UNL1        0.0000
     96 O           0.7504    9.8559    3.4131 O.3     1  UNL1        0.0000
     97 O           1.5868    8.4690    4.9992 O.3     1  UNL1        0.0000
     98 O           2.6513   -2.3487    8.0962 O.3     1  UNL1        0.0000
     99 O           8.9649    4.4505    3.5334 O.3     1  UNL1        0.0000
    100 O          -3.8580    2.9274    9.5991 O.3     1  UNL1        0.0000
    101 O           6.2924    4.1956    2.5344 O.3     1  UNL1        0.0000
    102 O          -1.3538    2.0542   10.0994 O.3     1  UNL1        0.0000
    103 O           7.2312    6.4829    2.9843 O.3     1  UNL1        0.0000
    104 O          -3.1060    0.3296   10.5921 O.3     1  UNL1        0.0000
    105 O           1.5006   -2.8784   10.6868 O.3     1  UNL1        0.0000
    106 O           3.2690    9.0170    2.9149 O.3     1  UNL1        0.0000
    107 O           2.4545   -0.6169   10.2227 O.3     1  UNL1        0.0000
    108 O           1.5628    7.2599    2.3975 O.3     1  UNL1        0.0000
    109 O           4.7203    4.9327    5.2637 O.3     1  UNL1        0.0000
    110 O          -1.9146   -0.9469    7.9143 O.2     1  UNL1        0.0000
    111 O           3.8718   -3.7326   11.9889 O.2     1  UNL1        0.0000
    112 O           2.1193   10.9406    1.1409 O.2     1  UNL1        0.0000
    113 O           4.6739   -0.9445   11.9838 O.3     1  UNL1        0.0000
    114 O          -0.1167    9.1049    1.0808 O.2     1  UNL1        0.0000
    115 O          -0.0951   -2.2764    7.9939 O.2     1  UNL1        0.0000
    116 O           2.7573    6.0334    5.1246 O.3     1  UNL1        0.0000
    117 O           9.4121    6.1301    1.1270 O.2     1  UNL1        0.0000
    118 O          -4.7422    2.1697   11.9148 O.2     1  UNL1        0.0000
    119 O           8.6165    3.3758    1.1564 O.2     1  UNL1        0.0000
    120 O          -2.4740    3.9521   11.9961 O.3     1  UNL1        0.0000
    121 O           4.4842    6.5871    3.0354 O.3     1  UNL1        0.0000
    122 O          -0.2177   -0.4167   10.0165 O.3     1  UNL1        0.0000
    123 O           6.9383    5.3620    0.1026 O.3     1  UNL1        0.0000
    124 O           2.3707    8.4640   -0.0641 O.3     1  UNL1        0.0000
    125 H           0.5634    5.4104   12.2543 H       4  UNL4        0.0000
    126 H           2.6306    4.2185   10.8029 H       4  UNL4        0.0000
    127 C           1.3168    4.6886   12.5456 C.2     4  UNL4        0.0000
    128 H           5.3693    4.0635   11.5420 H       4  UNL4        0.0000
    129 C           2.3325    4.1053   11.8370 C.2     4  UNL4        0.0000
    130 H           0.5308    5.6031   15.1373 H       4  UNL4        0.0000
    131 N           1.3775    4.1739   13.8294 N.pl3   4  UNL4        0.0000
    132 C           5.4481    3.2812   12.3070 C.3     4  UNL4        0.0000
    133 H           5.6537    3.7560   13.2744 H       4  UNL4        0.0000
    134 C           0.4752    4.5309   14.9291 C.3     4  UNL4        0.0000
    135 N           2.9849    3.2375   12.6966 N.pl3   4  UNL4        0.0000
    136 H          -0.5470    4.2568   14.6616 H       4  UNL4        0.0000
    137 H           6.3024    2.6379   12.0546 H       4  UNL4        0.0000
    138 C           2.3931    3.2947   13.9040 C.3     4  UNL4        0.0000
    139 C           4.1810    2.4318   12.3617 C.3     4  UNL4        0.0000
    140 H           3.9751    1.9329   11.4068 H       4  UNL4        0.0000
    141 H           0.7539    3.9610   15.8161 H       4  UNL4        0.0000
    142 H           2.6823    2.7346   14.7852 H       4  UNL4        0.0000
    143 H           4.2530    1.6491   13.1257 H       4  UNL4        0.0000
    144 TI         -7.1680   -5.0094   24.3567 Ti      1  UNL1        0.0000
    145 TI          3.6625   -2.1282   14.9919 Ti      1  UNL1        0.0000
    146 TI         -3.0713   -8.9456   22.5367 Ti      1  UNL1        0.0000
    147 TI         -1.5601    0.2165   16.7637 Ti      1  UNL1        0.0000
    148 TI         -2.5587    1.8948   14.8593 Ti      1  UNL1        0.0000
    149 TI         -1.1831   -9.2000   24.4901 Ti      1  UNL1        0.0000
    150 TI         -6.2188   -6.7453   22.4652 Ti      1  UNL1        0.0000
    151 TI          1.6747   -1.8257   16.8393 Ti      1  UNL1        0.0000
    152 H          -0.5580   -5.7060   21.7125 H       1  UNL1        0.0000
    153 H          -4.4988  -11.4615   19.5935 H       1  UNL1        0.0000
    154 H           0.4738    3.6170   17.7721 H       1  UNL1        0.0000
    155 H          -6.6661   -1.1124   24.1372 H       1  UNL1        0.0000
    156 H           4.4713   -6.0343   15.3125 H       1  UNL1        0.0000
    157 H         -11.1279   -5.7661   23.9742 H       1  UNL1        0.0000
    158 H           7.0447   -0.1239   15.1925 H       1  UNL1        0.0000
    159 H          -0.2075  -13.2345   24.1041 H       1  UNL1        0.0000
    160 H          -6.6172    1.3049   15.1813 H       1  UNL1        0.0000
    161 H           0.4152   -4.1895   19.9593 H       1  UNL1        0.0000
    162 H          -4.2767   -3.5578   21.5115 H       1  UNL1        0.0000
    163 H          -7.9779   -8.9332   19.4709 H       1  UNL1        0.0000
    164 H          -2.0642    0.2580   12.9862 H       1  UNL1        0.0000
    165 H           1.7870   -2.3709   13.2919 H       1  UNL1        0.0000
    166 H          -0.6732   -9.8671   18.9790 H       1  UNL1        0.0000
    167 H          -3.2835    2.0535   20.3826 H       1  UNL1        0.0000
    168 H         -10.2914   -3.3567   22.1093 H       1  UNL1        0.0000
    169 H           6.4173   -4.2126   17.2979 H       1  UNL1        0.0000
    170 H          -7.9903   -4.8041   18.7754 H       1  UNL1        0.0000
    171 H          -5.6587    3.7227   17.2125 H       1  UNL1        0.0000
    172 H          -2.1664    4.9976   15.7147 H       1  UNL1        0.0000
    173 H           4.3135   -8.0531   16.5150 H      54  UNL54       0.0000
    174 H           0.5325   -0.1034   15.4250 H       1  UNL1        0.0000
    175 H          -4.1520   -7.0972   23.8303 H       1  UNL1        0.0000
    176 H           3.0517   -7.2651   22.8797 H       1  UNL1        0.0000
    177 H           1.5705   -7.7342   23.6271 H       1  UNL1        0.0000
    178 H           3.6258   -2.8315   21.7808 H       1  UNL1        0.0000
    179 H           3.0561   -2.4729   20.1623 H       1  UNL1        0.0000
    180 H           2.5628  -12.2200   22.6897 H       1  UNL1        0.0000
    181 H           1.2837  -11.1194   23.1471 H       1  UNL1        0.0000
    182 H          -2.8873   -5.3649   22.4717 H       1  UNL1        0.0000
    183 H          -3.3042   -2.0362   19.7572 H       1  UNL1        0.0000
    184 H           1.7192    1.6302   16.9768 H       1  UNL1        0.0000
    185 H         -12.0445    1.6510   17.7996 H      54  UNL54       0.0000
    186 C           4.2405   -2.8695   17.8554 C.3     1  UNL1        0.0000
    187 C          -8.1285   -4.7481   21.5096 C.3     1  UNL1        0.0000
    188 C          -0.4908   -9.9563   21.6120 C.3     1  UNL1        0.0000
    189 C          -3.4962    2.1870   17.7230 C.3     1  UNL1        0.0000
    190 C           5.1366   -3.4738   18.8506 C.ar    1  UNL1        0.0000
    191 C          -9.0604   -4.1230   20.5326 C.2     1  UNL1        0.0000
    192 C           0.4494  -10.5707   20.6648 C.2     1  UNL1        0.0000
    193 C          -4.3860    2.8338   18.7228 C.ar    1  UNL1        0.0000
    194 C           4.8878   -3.3989   20.2570 C.ar    1  UNL1        0.0000
    195 C          -8.8440   -4.2430   19.1446 C.3     1  UNL1        0.0000
    196 C           1.5789  -11.3310   21.1178 C.2     1  UNL1        0.0000
    197 C          -5.4808    3.6068   18.2779 C.ar    1  UNL1        0.0000
    198 C          -4.1315    2.6630   20.0777 C.ar    1  UNL1        0.0000
    199 C           0.2017  -10.4386   19.2809 C.3     1  UNL1        0.0000
    200 C           6.2702   -4.1728   18.3749 C.ar    1  UNL1        0.0000
    201 C         -10.1606   -3.4306   21.0313 C.2     1  UNL1        0.0000
    202 C          -1.3876   -3.0231   19.7603 C.ar    1  UNL1        0.0000
    203 C          -2.4695   -4.7114   21.7080 C.ar    1  UNL1        0.0000
    204 C           2.1580    2.2731   17.7381 C.ar    1  UNL1        0.0000
    205 C          -6.1803  -10.1128   19.6322 C.2     1  UNL1        0.0000
    206 C           4.4523   -5.9552   13.1685 C.2     1  UNL1        0.0000
    207 C          -2.0174    5.8364   13.1935 C.ar    1  UNL1        0.0000
    208 C           6.9367   -0.1921   13.0424 C.ar    1  UNL1        0.0000
    209 C          -6.4216    1.3503   13.0231 C.2     1  UNL1        0.0000
    210 C          -0.8134   -2.1267   18.7283 C.3     1  UNL1        0.0000
    211 C          -5.5695   -9.2211   20.6464 C.2     1  UNL1        0.0000
    212 C           4.3165   -4.5004   13.1453 C.2     1  UNL1        0.0000
    213 C          -2.1102    4.4029   13.1560 C.3     1  UNL1        0.0000
    214 C           5.6389   -0.8089   13.0893 C.3     1  UNL1        0.0000
    215 C          -5.0193    1.7647   13.0475 C.2     1  UNL1        0.0000
    216 C          -2.7152   -2.8411   20.1919 C.ar    1  UNL1        0.0000
    217 C          -1.1497   -4.9013   21.2793 C.ar    1  UNL1        0.0000
    218 C           1.4570    3.4000   18.1862 C.ar    1  UNL1        0.0000
    219 C          -5.4838  -11.2508   19.1829 C.3     1  UNL1        0.0000
    220 C           4.4917   -6.6243   14.3981 C.3     1  UNL1        0.0000
    221 C          -6.6552   -0.5240   25.0511 C.ar    1  UNL1        0.0000
    222 C           7.5921    0.0827   14.2764 C.ar    1  UNL1        0.0000
    223 C         -11.6894   -5.9454   24.8896 C.3     1  UNL1        0.0000
    224 C           3.4254    1.9728   18.2532 C.ar    1  UNL1        0.0000
    225 C          -7.4562   -9.8187   19.1139 C.3     1  UNL1        0.0000
    226 C          -0.6072   -4.0596   20.3077 C.ar    1  UNL1        0.0000
    227 C          -3.2527   -3.6856   21.1642 C.ar    1  UNL1        0.0000
    228 C           2.9964   -6.9898   24.9041 C.ar    1  UNL1        0.0000
    229 C          -7.1188    1.1199   14.2355 C.3     1  UNL1        0.0000
    230 C          -0.1658  -13.7617   25.0532 C.3     1  UNL1        0.0000
    231 C          -2.0036    6.5876   14.4227 C.ar    1  UNL1        0.0000
    232 N          -1.9486    5.9887   15.6609 N.pl3   1  UNL1        0.0000
    233 N           2.4174   -7.1726   23.6651 N.pl3   1  UNL1        0.0000
    234 N           3.8069   -2.7526   20.7883 N.pl3   1  UNL1        0.0000
    235 N           1.9099  -11.4892   22.4352 N.pl3   1  UNL1        0.0000
    236 O           3.0642   -2.4644   18.2212 O.3     1  UNL1        0.0000
    237 O          -7.3595   -5.6989   21.1114 O.3     1  UNL1        0.0000
    238 O          -0.1093   -9.8319   22.8331 O.3     1  UNL1        0.0000
    239 O          -3.5621    2.6167   16.5234 O.3     1  UNL1        0.0000
    240 O          -2.7258    1.2298   18.1095 O.3     1  UNL1        0.0000
    241 O          -1.6612   -9.5879   21.2065 O.3     1  UNL1        0.0000
    242 O           4.6524   -2.7887   16.6436 O.3     1  UNL1        0.0000
    243 O          -8.1705   -4.3118   22.7094 O.3     1  UNL1        0.0000
    244 O           1.9799   -3.0436   15.6446 O.3     1  UNL1        0.0000
    245 O          -5.6663   -5.1850   23.2097 O.3     1  UNL1        0.0000
    246 O           2.9187   -0.7563   16.0946 O.3     1  UNL1        0.0000
    247 O          -7.4185   -6.9097   23.7024 O.3     1  UNL1        0.0000
    248 O          -2.8120  -10.1176   23.7971 O.3     1  UNL1        0.0000
    249 O          -1.0435    1.7778   16.0252 O.3     1  UNL1        0.0000
    250 O          -1.8580   -7.8561   23.3329 O.3     1  UNL1        0.0000
    251 O          -2.7498    0.0207   15.5078 O.3     1  UNL1        0.0000
    252 O           0.4077   -2.3065   18.3740 O.3     1  UNL1        0.0000
    253 O          -6.2271   -8.1861   21.0246 O.2     1  UNL1        0.0000
    254 O          -0.4408  -10.9718   25.0992 O.2     1  UNL1        0.0000
    255 O          -2.1933    3.7014   14.2512 O.3     1  UNL1        0.0000
    256 O           0.3614   -8.1837   25.0940 O.3     1  UNL1        0.0000
    257 O          -4.4292    1.8657   14.1911 O.2     1  UNL1        0.0000
    258 O          -4.4076   -9.5156   21.1042 O.2     1  UNL1        0.0000
    259 O          -1.5552   -1.2058   18.2349 O.3     1  UNL1        0.0000
    260 O           5.0996   -1.1091   14.2373 O.3     1  UNL1        0.0000
    261 O          -9.0548   -5.0695   25.0251 O.2     1  UNL1        0.0000
    262 O           4.3040   -3.8634   14.2667 O.2     1  UNL1        0.0000
    263 O          -6.7866   -3.2872   25.1064 O.3     1  UNL1        0.0000
    264 O           0.1717   -0.6521   16.1457 O.3     1  UNL1        0.0000
    265 O          -4.5302   -7.6559   23.1267 O.3     1  UNL1        0.0000
    266 O           2.6258   -1.8772   13.2129 O.3     1  UNL1        0.0000
    267 O          -1.9418    1.2248   13.0462 O.3     1  UNL1        0.0000
    268 H          -3.7491   -1.8288   25.3645 H       7  UNL7        0.0000
    269 H          -1.6819   -3.0207   23.9132 H       7  UNL7        0.0000
    270 C          -2.9957   -2.5506   25.6559 C.2     7  UNL7        0.0000
    271 H           1.0568   -3.1757   24.6522 H       7  UNL7        0.0000
    272 C          -1.9800   -3.1339   24.9473 C.2     7  UNL7        0.0000
    273 H          -3.7818   -1.6361   28.2476 H       7  UNL7        0.0000
    274 N          -2.9350   -3.0653   26.9397 N.pl3   7  UNL7        0.0000
    275 C           1.1356   -3.9580   25.4172 C.3     7  UNL7        0.0000
    276 H           1.3412   -3.4832   26.3846 H       7  UNL7        0.0000
    277 C          -3.8373   -2.7083   28.0394 C.3     7  UNL7        0.0000
    278 N          -1.3276   -4.0017   25.8068 N.pl3   7  UNL7        0.0000
    279 H          -4.8596   -2.9825   27.7719 H       7  UNL7        0.0000
    280 H           1.9898   -4.6013   25.1649 H       7  UNL7        0.0000
    281 C          -1.9194   -3.9445   27.0142 C.3     7  UNL7        0.0000
    282 C          -0.1315   -4.8074   25.4720 C.3     7  UNL7        0.0000
    283 H          -0.3374   -5.3063   24.5171 H       7  UNL7        0.0000
    284 H          -3.5586   -3.2782   28.9264 H       7  UNL7        0.0000
    285 H          -1.6302   -4.5046   27.8955 H       7  UNL7        0.0000
    286 H          -0.0596   -5.5901   26.2360 H       7  UNL7        0.0000
    287 TI        -11.4805  -12.2486   37.4669 Ti      8  UNL8        0.0000
    288 TI         -0.6500   -9.3674   28.1021 Ti      1  UNL1        0.0000
    289 TI         -7.3838  -16.1848   35.6470 Ti      8  UNL8        0.0000
    290 TI         -5.8726   -7.0227   29.8739 Ti      1  UNL1        0.0000
    291 TI         -6.8712   -5.3444   27.9695 Ti      1  UNL1        0.0000
    292 TI         -5.4956  -16.4392   37.6003 Ti      8  UNL8        0.0000
    293 TI        -10.5313  -13.9845   35.5755 Ti      8  UNL8        0.0000
    294 TI         -2.6378   -9.0649   29.9496 Ti      1  UNL1        0.0000
    295 H          -4.8706  -12.9452   34.8228 H       1  UNL1        0.0000
    296 H          -8.8113  -18.7007   32.7037 H       8  UNL8        0.0000
    297 H          -3.8388   -3.6222   30.8824 H       1  UNL1        0.0000
    298 H         -10.9786   -8.3516   37.2475 H       1  UNL1        0.0000
    299 H           0.1588  -13.2735   28.4228 H       1  UNL1        0.0000
    300 H         -15.4404  -13.0053   37.0845 H       2  UNL2        0.0000
    301 H           2.7321   -7.3631   28.3028 H       1  UNL1        0.0000
    302 H          -4.5200  -20.4737   37.2144 H       4  UNL4        0.0000
    303 H         -10.9297   -5.9343   28.2916 H       1  UNL1        0.0000
    304 H          -3.8974  -11.4287   33.0695 H       1  UNL1        0.0000
    305 H          -8.5892  -10.7970   34.6218 H       1  UNL1        0.0000
    306 H         -12.2904  -16.1724   32.5811 H       8  UNL8        0.0000
    307 H          -6.3767   -6.9812   26.0965 H       1  UNL1        0.0000
    308 H          -2.5256   -9.6101   26.4022 H       1  UNL1        0.0000
    309 H          -4.9857  -17.1063   32.0892 H       8  UNL8        0.0000
    310 H          -7.5961   -5.1857   33.4929 H       1  UNL1        0.0000
    311 H         -14.6039  -10.5959   35.2196 H       8  UNL8        0.0000
    312 H           2.1047  -11.4518   30.4081 H       1  UNL1        0.0000
    313 H         -12.3028  -12.0433   31.8857 H       8  UNL8        0.0000
    314 H          -9.9713   -3.5165   30.3228 H       1  UNL1        0.0000
    315 H          -6.4790   -2.2416   28.8250 H       1  UNL1        0.0000
    316 H           0.0009  -15.2923   29.6253 H      54  UNL54       0.0000
    317 H          -3.7800   -7.3426   28.5353 H       1  UNL1        0.0000
    318 H          -8.4645  -14.3364   36.9406 H       8  UNL8        0.0000
    319 H          -1.2609  -14.5043   35.9900 H       3  UNL3        0.0000
    320 H          -2.7420  -14.9734   36.7373 H       3  UNL3        0.0000
    321 H          -0.6867  -10.0707   34.8911 H       1  UNL1        0.0000
    322 H          -1.2565   -9.7121   33.2726 H       1  UNL1        0.0000
    323 H          -1.7497  -19.4592   35.8000 H       8  UNL8        0.0000
    324 H          -3.0288  -18.3586   36.2574 H       8  UNL8        0.0000
    325 H          -7.1999  -12.6041   35.5820 H       1  UNL1        0.0000
    326 H          -7.6167   -9.2754   32.8675 H       1  UNL1        0.0000
    327 H          -2.5933   -5.6090   30.0871 H       1  UNL1        0.0000
    328 H         -16.3570   -5.5882   30.9099 H      54  UNL54       0.0000
    329 C          -0.0720  -10.1087   30.9657 C.3     1  UNL1        0.0000
    330 C         -12.4410  -11.9873   34.6199 C.3     8  UNL8        0.0000
    331 C          -4.8033  -17.1955   34.7222 C.3     8  UNL8        0.0000
    332 C          -7.8087   -5.0522   30.8333 C.3     1  UNL1        0.0000
    333 C           0.8240  -10.7130   31.9609 C.ar    1  UNL1        0.0000
    334 C         -13.3730  -11.3622   33.6429 C.2     8  UNL8        0.0000
    335 C          -3.8631  -17.8099   33.7751 C.2     8  UNL8        0.0000
    336 C          -8.6986   -4.4054   31.8331 C.ar    1  UNL1        0.0000
    337 C           0.5753  -10.6381   33.3673 C.ar    1  UNL1        0.0000
    338 C         -13.1566  -11.4822   32.2548 C.3     8  UNL8        0.0000
    339 C          -2.7337  -18.5702   34.2281 C.2     8  UNL8        0.0000
    340 C          -9.7933   -3.6324   31.3882 C.ar    1  UNL1        0.0000
    341 C          -8.4441   -4.5762   33.1880 C.ar    1  UNL1        0.0000
    342 C          -4.1108  -17.6778   32.3911 C.3     8  UNL8        0.0000
    343 C           1.9577  -11.4120   31.4851 C.ar    1  UNL1        0.0000
    344 C         -14.4731  -10.6698   34.1415 C.2     8  UNL8        0.0000
    345 C          -5.7001  -10.2623   32.8706 C.ar    1  UNL1        0.0000
    346 C          -6.7820  -11.9506   34.8182 C.ar    1  UNL1        0.0000
    347 C          -2.1545   -4.9661   30.8484 C.ar    1  UNL1        0.0000
    348 C         -10.4928  -17.3520   32.7425 C.2     8  UNL8        0.0000
    349 C           0.1398  -13.1944   26.2787 C.2     1  UNL1        0.0000
    350 C          -6.3299   -1.4028   26.3037 C.ar    1  UNL1        0.0000
    351 C           2.6242   -7.4313   26.1527 C.ar    1  UNL1        0.0000
    352 C         -10.7341   -5.8889   26.1333 C.2     1  UNL1        0.0000
    353 C          -5.1259   -9.3659   31.8385 C.3     1  UNL1        0.0000
    354 C          -9.8820  -16.4603   33.7567 C.2     8  UNL8        0.0000
    355 C           0.0039  -11.7396   26.2555 C.2     1  UNL1        0.0000
    356 C          -6.4227   -2.8363   26.2662 C.3     1  UNL1        0.0000
    357 C           1.3264   -8.0481   26.1996 C.3     1  UNL1        0.0000
    358 C          -9.3318   -5.4745   26.1578 C.2     1  UNL1        0.0000
    359 C          -7.0278  -10.0803   33.3021 C.ar    1  UNL1        0.0000
    360 C          -5.4622  -12.1405   34.3896 C.ar    1  UNL1        0.0000
    361 C          -2.8556   -3.8392   31.2965 C.ar    1  UNL1        0.0000
    362 C          -9.7963  -18.4900   32.2931 C.3     8  UNL8        0.0000
    363 C           0.1791  -13.8635   27.5084 C.3     1  UNL1        0.0000
    364 C         -10.9677   -7.7632   38.1614 C.3     1  UNL1        0.0000
    365 C           3.2795   -7.1565   27.3867 C.ar    1  UNL1        0.0000
    366 C         -16.0019  -13.1846   37.9999 C.3    11  UNL11       0.0000
    367 C          -0.8871   -5.2664   31.3634 C.ar    1  UNL1        0.0000
    368 C         -11.7687  -17.0579   32.2242 C.3     8  UNL8        0.0000
    369 C          -4.9198  -11.2988   33.4180 C.ar    1  UNL1        0.0000
    370 C          -7.5652  -10.9248   34.2745 C.ar    1  UNL1        0.0000
    371 C          -1.3161  -14.2290   38.0143 C.3     3  UNL3        0.0000
    372 C         -11.4313   -6.1193   27.3458 C.3     1  UNL1        0.0000
    373 C          -4.4784  -21.0009   38.1635 C.3    12  UNL12       0.0000
    374 C          -6.3162   -0.6516   27.5330 C.ar    1  UNL1        0.0000
    375 N          -6.2611   -1.2505   28.7712 N.pl3   1  UNL1        0.0000
    376 N          -1.8952  -14.4118   36.7754 N.3     3  UNL3        0.0000
    377 N          -0.5056   -9.9918   33.8986 N.pl3   1  UNL1        0.0000
    378 N          -2.4027  -18.7284   35.5455 N.pl3   8  UNL8        0.0000
    379 O          -1.2483   -9.7036   31.3315 O.3     1  UNL1        0.0000
    380 O         -11.6721  -12.9381   34.2216 O.3     8  UNL8        0.0000
    381 O          -4.4219  -17.0711   35.9434 O.3     8  UNL8        0.0000
    382 O          -7.8746   -4.6225   29.6337 O.3     1  UNL1        0.0000
    383 O          -7.0383   -6.0094   31.2197 O.3     1  UNL1        0.0000
    384 O          -5.9737  -16.8271   34.3167 O.3     8  UNL8        0.0000
    385 O           0.3399  -10.0279   29.7539 O.3     1  UNL1        0.0000
    386 O         -12.4831  -11.5510   35.8196 O.3     8  UNL8        0.0000
    387 O          -2.3326  -10.2828   28.7549 O.3     1  UNL1        0.0000
    388 O          -9.9788  -12.4242   36.3200 O.3     8  UNL8        0.0000
    389 O          -1.3938   -7.9955   29.2049 O.3     1  UNL1        0.0000
    390 O         -11.7310  -14.1489   36.8127 O.3     8  UNL8        0.0000
    391 O          -7.1245  -17.3568   36.9074 O.3     8  UNL8        0.0000
    392 O          -5.3561   -5.4614   29.1355 O.3     1  UNL1        0.0000
    393 O          -6.1706  -15.0953   36.4432 O.3     8  UNL8        0.0000
    394 O          -7.0623   -7.2185   28.6180 O.3     1  UNL1        0.0000
    395 O          -3.9048   -9.5458   31.4843 O.3     1  UNL1        0.0000
    396 O         -10.5397  -15.4253   34.1349 O.2     8  UNL8        0.0000
    397 O          -4.7533  -18.2110   38.2094 O.3     8  UNL8        0.0000
    398 O          -6.5058   -3.5378   27.3614 O.3     1  UNL1        0.0000
    399 O          -3.9511  -15.4229   38.2043 O.3     8  UNL8        0.0000
    400 O          -8.7417   -5.3735   27.3014 O.2     1  UNL1        0.0000
    401 O          -8.7202  -16.7548   34.2145 O.2     8  UNL8        0.0000
    402 O          -5.8677   -8.4450   31.3452 O.3     1  UNL1        0.0000
    403 O           0.7870   -8.3483   27.3476 O.3     1  UNL1        0.0000
    404 O         -13.3673  -12.3087   38.1354 O.3     8  UNL8        0.0000
    405 O          -0.0085  -11.1026   27.3770 O.2     1  UNL1        0.0000
    406 O         -11.0991  -10.5264   38.2167 O.3     8  UNL8        0.0000
    407 O          -4.1408   -7.8913   29.2560 O.3     1  UNL1        0.0000
    408 O          -8.8428  -14.8951   36.2370 O.3     8  UNL8        0.0000
    409 O          -1.6867   -9.1165   26.3232 O.3     1  UNL1        0.0000
    410 O          -6.2544   -6.0144   26.1564 O.3     1  UNL1        0.0000
    411 H          -8.0617   -9.0680   38.4748 H      13  UNL13       0.0000
    412 H          -5.9944  -10.2599   37.0234 H      13  UNL13       0.0000
    413 C          -7.3083   -9.7898   38.7661 C.2    13  UNL13       0.0000
    414 H          -3.2558  -10.4149   37.7625 H      13  UNL13       0.0000
    415 C          -6.2926  -10.3731   38.0576 C.2    13  UNL13       0.0000
    416 H          -8.0943   -8.8753   41.3578 H      13  UNL13       0.0000
    417 N          -7.2475  -10.3045   40.0500 N.pl3  13  UNL13       0.0000
    418 C          -3.1770  -11.1972   38.5275 C.3    13  UNL13       0.0000
    419 H          -2.9713  -10.7224   39.4949 H      13  UNL13       0.0000
    420 C          -8.1498   -9.9475   41.1497 C.3    13  UNL13       0.0000
    421 N          -5.6401  -11.2409   38.9171 N.pl3  13  UNL13       0.0000
    422 H          -9.1721  -10.2217   40.8821 H      13  UNL13       0.0000
    423 H          -2.3227  -11.8405   38.2752 H      13  UNL13       0.0000
    424 C          -6.2320  -11.1837   40.1245 C.3    13  UNL13       0.0000
    425 C          -4.4440  -12.0466   38.5822 C.3    13  UNL13       0.0000
    426 H          -4.6499  -12.5455   37.6274 H      13  UNL13       0.0000
    427 H          -7.8712  -10.5174   42.0367 H      13  UNL13       0.0000
    428 H          -5.9428  -11.7438   41.0058 H      13  UNL13       0.0000
    429 H          -4.3721  -12.8293   39.3462 H      13  UNL13       0.0000
    430 TI         -9.8774   16.6066   11.2464 Ti      1  UNL1        0.0000
    431 TI          0.9531   19.4878    1.8816 Ti      1  UNL1        0.0000
    432 TI         -5.7807   12.6704    9.4264 Ti      1  UNL1        0.0000
    433 TI         -4.2695   21.8325    3.6534 Ti      1  UNL1        0.0000
    434 TI         -5.2681   23.5108    1.7490 Ti      1  UNL1        0.0000
    435 TI         -3.8925   12.4160   11.3798 Ti      1  UNL1        0.0000
    436 TI         -8.9282   14.8707    9.3549 Ti      1  UNL1        0.0000
    437 TI         -1.0347   19.7903    3.7291 Ti      1  UNL1        0.0000
    438 H          -3.2674   15.9100    8.6022 H       1  UNL1        0.0000
    439 H          -7.2082   10.1545    6.4832 H       1  UNL1        0.0000
    440 H          -2.2356   25.2330    4.6619 H       1  UNL1        0.0000
    441 H          -9.3755   20.5037   11.0269 H       1  UNL1        0.0000
    442 H           1.7619   15.5817    2.2023 H       1  UNL1        0.0000
    443 H         -13.8373   15.8499   10.8639 H       1  UNL1        0.0000
    444 H           4.3353   21.4921    2.0822 H       1  UNL1        0.0000
    445 H          -2.9169    8.3815   10.9939 H       1  UNL1        0.0000
    446 H          -9.3266   22.9209    2.0711 H       1  UNL1        0.0000
    447 H          -2.2943   17.4265    6.8490 H       1  UNL1        0.0000
    448 H          -6.9861   18.0582    8.4012 H       1  UNL1        0.0000
    449 H         -10.6873   12.6828    6.3606 H       1  UNL1        0.0000
    450 H          -4.7736   21.8740   -0.1241 H       1  UNL1        0.0000
    451 H          -0.9224   19.2451    0.1817 H       1  UNL1        0.0000
    452 H          -3.3826   11.7489    5.8687 H       1  UNL1        0.0000
    453 H          -5.9929   23.6695    7.2723 H       1  UNL1        0.0000
    454 H         -13.0008   18.2593    8.9990 H       1  UNL1        0.0000
    455 H           3.7079   17.4035    4.1876 H       1  UNL1        0.0000
    456 H         -10.6997   16.8119    5.6652 H       1  UNL1        0.0000
    457 H          -8.3681   25.3387    4.1022 H       1  UNL1        0.0000
    458 H          -4.8758   26.6137    2.6045 H       1  UNL1        0.0000
    459 H           1.6041   13.5629    3.4048 H       1  UNL1        0.0000
    460 H          -2.1769   21.5126    2.3148 H       1  UNL1        0.0000
    461 H          -6.8614   14.5188   10.7200 H       1  UNL1        0.0000
    462 H           0.3423   14.3509    9.7694 H       1  UNL1        0.0000
    463 H          -1.1389   13.8818   10.5168 H       1  UNL1        0.0000
    464 H           0.9164   18.7845    8.6705 H       1  UNL1        0.0000
    465 H           0.3467   19.1431    7.0520 H       1  UNL1        0.0000
    466 H          -0.1466    9.3961    9.5794 H       1  UNL1        0.0000
    467 H          -1.4257   10.4966   10.0368 H       1  UNL1        0.0000
    468 H          -5.5967   16.2511    9.3615 H       1  UNL1        0.0000
    469 H          -6.0136   19.5799    6.6470 H       1  UNL1        0.0000
    470 H          -0.9902   23.2462    3.8665 H       1  UNL1        0.0000
    471 H         -14.7539   23.2670    4.6894 H      54  UNL54       0.0000
    472 C           1.5311   18.7466    4.7451 C.3     1  UNL1        0.0000
    473 C         -10.8379   16.8680    8.3994 C.3     1  UNL1        0.0000
    474 C          -3.2002   11.6597    8.5017 C.3     1  UNL1        0.0000
    475 C          -6.2056   23.8030    4.6127 C.3     1  UNL1        0.0000
    476 C           2.4272   18.1422    5.7403 C.ar    1  UNL1        0.0000
    477 C         -11.7698   17.4930    7.4223 C.2     1  UNL1        0.0000
    478 C          -2.2600   11.0453    7.5545 C.ar    1  UNL1        0.0000
    479 C          -7.0954   24.4498    5.6125 C.ar    1  UNL1        0.0000
    480 C           2.1784   18.2171    7.1467 C.ar    1  UNL1        0.0000
    481 C         -11.5534   17.3730    6.0343 C.3     1  UNL1        0.0000
    482 C          -1.1305   10.2850    8.0076 C.ar    1  UNL1        0.0000
    483 C          -8.1902   25.2228    5.1676 C.ar    1  UNL1        0.0000
    484 C          -6.8409   24.2791    6.9674 C.ar    1  UNL1        0.0000
    485 C          -2.5077   11.1775    6.1706 C.ar    1  UNL1        0.0000
    486 C           3.5608   17.4433    5.2646 C.ar    1  UNL1        0.0000
    487 C         -12.8700   18.1854    7.9210 C.2     1  UNL1        0.0000
    488 C          -4.0970   18.5929    6.6500 C.ar    1  UNL1        0.0000
    489 C          -5.1789   16.9046    8.5977 C.ar    1  UNL1        0.0000
    490 C          -0.5514   23.8891    4.6279 C.ar    1  UNL1        0.0000
    491 C          -8.8897   11.5032    6.5220 C.2     1  UNL1        0.0000
    492 C           1.7429   15.6608    0.0582 C.2     1  UNL1        0.0000
    493 C          -4.7268   27.4524    0.0832 C.2     1  UNL1        0.0000
    494 C           4.2273   21.4239   -0.0678 C.2     1  UNL1        0.0000
    495 C          -9.1310   22.9664   -0.0872 C.2     1  UNL1        0.0000
    496 C          -3.5228   19.4893    5.6180 C.3     1  UNL1        0.0000
    497 C          -8.2789   12.3950    7.5361 C.2     1  UNL1        0.0000
    498 C           1.6071   17.1157    0.0350 C.2     1  UNL1        0.0000
    499 C          -4.8196   26.0189    0.0457 C.2     1  UNL1        0.0000
    500 C           2.9295   20.8071   -0.0210 C.2     1  UNL1        0.0000
    501 C          -7.7287   23.3807   -0.0628 C.2     1  UNL1        0.0000
    502 C          -5.4246   18.7749    7.0816 C.ar    1  UNL1        0.0000
    503 C          -3.8591   16.7147    8.1690 C.ar    1  UNL1        0.0000
    504 C          -1.2524   25.0160    5.0759 C.ar    1  UNL1        0.0000
    505 C          -8.1932   10.3652    6.0726 C.3     1  UNL1        0.0000
    506 C           1.7823   14.9917    1.2879 C.3     1  UNL1        0.0000
    507 C          -9.3646   21.0921   11.9408 C.ar    1  UNL1        0.0000
    508 C           4.8826   21.6987    1.1661 C.3     1  UNL1        0.0000
    509 C         -14.3988   15.6706   11.7793 C.3     1  UNL1        0.0000
    510 C           0.7160   23.5888    5.1429 C.ar    1  UNL1        0.0000
    511 C         -10.1656   11.7973    6.0036 C.3     1  UNL1        0.0000
    512 C          -3.3166   17.5564    7.1974 C.ar    1  UNL1        0.0000
    513 C          -5.9621   17.9304    8.0540 C.ar    1  UNL1        0.0000
    514 C           0.2870   14.6262   11.7938 C.ar    1  UNL1        0.0000
    515 C          -9.8282   22.7359    1.1253 C.3     1  UNL1        0.0000
    516 C          -2.8752    7.8543   11.9429 C.ar    1  UNL1        0.0000
    517 C          -4.7130   28.2036    1.3125 C.3     1  UNL1        0.0000
    518 N          -4.6580   27.6047    2.5506 N.3     1  UNL1        0.0000
    519 N          -0.2920   14.4434   10.5548 N.pl3   1  UNL1        0.0000
    520 N           1.0975   18.8634    7.6780 N.pl3   1  UNL1        0.0000
    521 N          -0.7995   10.1268    9.3250 N.pl3   1  UNL1        0.0000
    522 O           0.3548   19.1516    5.1109 O.3     1  UNL1        0.0000
    523 O         -10.0689   15.9171    8.0011 O.3     1  UNL1        0.0000
    524 O          -2.8187   11.7842    9.7228 O.3     1  UNL1        0.0000
    525 O          -6.2715   24.2327    3.4131 O.3     1  UNL1        0.0000
    526 O          -5.4352   22.8458    4.9992 O.3     1  UNL1        0.0000
    527 O          -4.3706   12.0281    8.0962 O.3     1  UNL1        0.0000
    528 O           1.9430   18.8273    3.5334 O.3     1  UNL1        0.0000
    529 O         -10.8799   17.3042    9.5991 O.3     1  UNL1        0.0000
    530 O          -0.7295   18.5724    2.5344 O.3     1  UNL1        0.0000
    531 O          -8.3757   16.4310   10.0994 O.3     1  UNL1        0.0000
    532 O           0.2093   20.8597    2.9843 O.3     1  UNL1        0.0000
    533 O         -10.1279   14.7064   10.5921 O.3     1  UNL1        0.0000
    534 O          -5.5214   11.4984   10.6868 O.3     1  UNL1        0.0000
    535 O          -3.7529   23.3938    2.9149 O.3     1  UNL1        0.0000
    536 O          -4.5674   13.7599   10.2227 O.3     1  UNL1        0.0000
    537 O          -5.4592   21.6367    2.3975 O.3     1  UNL1        0.0000
    538 O          -2.3017   19.3095    5.2637 O.3     1  UNL1        0.0000
    539 O          -8.9365   13.4299    7.9143 O.2     1  UNL1        0.0000
    540 O          -3.1502   10.6442   11.9889 O.3     1  UNL1        0.0000
    541 O          -4.9027   25.3174    1.1409 O.2     1  UNL1        0.0000
    542 O          -2.3480   13.4324   11.9838 O.3     1  UNL1        0.0000
    543 O          -7.1386   23.4817    1.0808 O.2     1  UNL1        0.0000
    544 O          -7.1170   12.1004    7.9939 O.2     1  UNL1        0.0000
    545 O          -4.2646   20.4102    5.1246 O.3     1  UNL1        0.0000
    546 O           2.3902   20.5069    1.1270 O.2     1  UNL1        0.0000
    547 O         -11.7642   16.5465   11.9148 O.2     1  UNL1        0.0000
    548 O           1.5946   17.7526    1.1564 O.2     1  UNL1        0.0000
    549 O          -9.4960   18.3289   11.9961 O.3     1  UNL1        0.0000
    550 O          -2.5377   20.9639    3.0354 O.3     1  UNL1        0.0000
    551 O          -7.2396   13.9601   10.0165 O.3     1  UNL1        0.0000
    552 O          -0.0836   19.7388    0.1026 O.3     1  UNL1        0.0000
    553 O          -4.6512   22.8408   -0.0641 O.3     1  UNL1        0.0000
    554 H          -6.4585   19.7872   12.2543 H      15  UNL15       0.0000
    555 H          -4.3913   18.5953   10.8029 H      15  UNL15       0.0000
    556 C          -5.7051   19.0654   12.5456 C.2    15  UNL15       0.0000
    557 H          -1.6526   18.4403   11.5420 H      15  UNL15       0.0000
    558 C          -4.6894   18.4821   11.8370 C.2    15  UNL15       0.0000
    559 H          -6.4912   19.9799   15.1373 H      15  UNL15       0.0000
    560 N          -5.6444   18.5507   13.8294 N.pl3  15  UNL15       0.0000
    561 C          -1.5738   17.6580   12.3070 C.3    15  UNL15       0.0000
    562 H          -1.3682   18.1328   13.2744 H      15  UNL15       0.0000
    563 C          -6.5467   18.9077   14.9291 C.3    15  UNL15       0.0000
    564 N          -4.0370   17.6143   12.6966 N.pl3  15  UNL15       0.0000
    565 H          -7.5690   18.6336   14.6616 H      15  UNL15       0.0000
    566 H          -0.7196   17.0147   12.0546 H      15  UNL15       0.0000
    567 C          -4.6288   17.6715   13.9040 C.3    15  UNL15       0.0000
    568 C          -2.8409   16.8087   12.3617 C.3    15  UNL15       0.0000
    569 H          -3.0468   16.3097   11.4068 H      15  UNL15       0.0000
    570 H          -6.2681   18.3378   15.8161 H      15  UNL15       0.0000
    571 H          -4.3397   17.1114   14.7852 H      15  UNL15       0.0000
    572 H          -2.7690   16.0260   13.1257 H      15  UNL15       0.0000
    573 TI        -14.1899    9.3674   24.3567 Ti      1  UNL1        0.0000
    574 TI         -3.3594   12.2486   14.9919 Ti      1  UNL1        0.0000
    575 TI        -10.0932    5.4312   22.5367 Ti      1  UNL1        0.0000
    576 TI         -8.5820   14.5933   16.7637 Ti      1  UNL1        0.0000
    577 TI         -9.5806   16.2716   14.8593 Ti      1  UNL1        0.0000
    578 TI         -8.2050    5.1768   24.4901 Ti      1  UNL1        0.0000
    579 TI        -13.2407    7.6315   22.4652 Ti      1  UNL1        0.0000
    580 TI         -5.3472   12.5511   16.8393 Ti      1  UNL1        0.0000
    581 H          -7.5800    8.6708   21.7125 H       1  UNL1        0.0000
    582 H         -11.5207    2.9153   19.5935 H       1  UNL1        0.0000
    583 H          -6.5482   17.9938   17.7721 H       1  UNL1        0.0000
    584 H         -13.6880   13.2645   24.1372 H       1  UNL1        0.0000
    585 H          -2.5506    8.3425   15.3125 H       1  UNL1        0.0000
    586 H         -18.1498    8.6107   23.9742 H       1  UNL1        0.0000
    587 H           0.0227   14.2529   15.1925 H       1  UNL1        0.0000
    588 H          -7.2294    1.1423   24.1041 H       1  UNL1        0.0000
    589 H         -13.6391   15.6817   15.1813 H       1  UNL1        0.0000
    590 H          -6.6068   10.1873   19.9593 H       1  UNL1        0.0000
    591 H         -11.2986   10.8190   21.5115 H       1  UNL1        0.0000
    592 H         -14.9998    5.4436   19.4709 H       1  UNL1        0.0000
    593 H          -9.0861   14.6348   12.9862 H       1  UNL1        0.0000
    594 H          -5.2350   12.0059   13.2919 H       1  UNL1        0.0000
    595 H          -7.6951    4.5097   18.9790 H       1  UNL1        0.0000
    596 H         -10.3055   16.4303   20.3826 H       1  UNL1        0.0000
    597 H         -17.3133   11.0201   22.1093 H       1  UNL1        0.0000
    598 H          -0.6047   10.1643   17.2979 H       1  UNL1        0.0000
    599 H         -15.0122    9.5727   18.7754 H       1  UNL1        0.0000
    600 H         -12.6807   18.0995   17.2125 H       1  UNL1        0.0000
    601 H          -9.1884   19.3745   15.7147 H       1  UNL1        0.0000
    602 H          -2.7085    6.3237   16.5150 H       1  UNL1        0.0000
    603 H          -6.4894   14.2734   15.4250 H       1  UNL1        0.0000
    604 H         -11.1739    7.2796   23.8303 H       1  UNL1        0.0000
    605 H          -3.9703    7.1117   22.8797 H       1  UNL1        0.0000
    606 H          -5.4514    6.6426   23.6271 H       1  UNL1        0.0000
    607 H          -3.3962   11.5453   21.7808 H       1  UNL1        0.0000
    608 H          -3.9659   11.9039   20.1623 H       1  UNL1        0.0000
    609 H          -4.4591    2.1569   22.6897 H       1  UNL1        0.0000
    610 H          -5.7382    3.2574   23.1471 H       1  UNL1        0.0000
    611 H          -9.9093    9.0119   22.4717 H       1  UNL1        0.0000
    612 H         -10.3261   12.3407   19.7572 H       1  UNL1        0.0000
    613 H          -5.3027   16.0070   16.9768 H       1  UNL1        0.0000
    614 H         -19.0664   16.0278   17.7996 H      54  UNL54       0.0000
    615 C          -2.7814   11.5073   17.8554 C.3     1  UNL1        0.0000
    616 C         -15.1505    9.6288   21.5096 C.3     1  UNL1        0.0000
    617 C          -7.5127    4.4205   21.6120 C.3     1  UNL1        0.0000
    618 C         -10.5181   16.5638   17.7230 C.3     1  UNL1        0.0000
    619 C          -1.8854   10.9030   18.8506 C.ar    1  UNL1        0.0000
    620 C         -16.0824   10.2538   20.5326 C.2     1  UNL1        0.0000
    621 C          -6.5725    3.8061   20.6648 C.ar    1  UNL1        0.0000
    622 C         -11.4080   17.2106   18.7228 C.ar    1  UNL1        0.0000
    623 C          -2.1341   10.9779   20.2570 C.ar    1  UNL1        0.0000
    624 C         -15.8660   10.1338   19.1446 C.3     1  UNL1        0.0000
    625 C          -5.4431    3.0458   21.1178 C.ar    1  UNL1        0.0000
    626 C         -12.5027   17.9836   18.2779 C.ar    1  UNL1        0.0000
    627 C         -11.1535   17.0399   20.0777 C.ar    1  UNL1        0.0000
    628 C          -6.8202    3.9383   19.2809 C.ar    1  UNL1        0.0000
    629 C          -0.7517   10.2040   18.3749 C.ar    1  UNL1        0.0000
    630 C         -17.1825   10.9462   21.0313 C.2     1  UNL1        0.0000
    631 C          -8.4095   11.3537   19.7603 C.ar    1  UNL1        0.0000
    632 C          -9.4914    9.6654   21.7080 C.ar    1  UNL1        0.0000
    633 C          -4.8639   16.6499   17.7381 C.ar    1  UNL1        0.0000
    634 C         -13.2022    4.2640   19.6322 C.2     1  UNL1        0.0000
    635 C          -2.5696    8.4216   13.1685 C.ar    1  UNL1        0.0000
    636 C          -9.0394   20.2132   13.1935 C.ar    1  UNL1        0.0000
    637 C          -0.0852   14.1847   13.0424 C.ar    1  UNL1        0.0000
    638 C         -13.4435   15.7272   13.0231 C.2     1  UNL1        0.0000
    639 C          -7.8353   12.2501   18.7283 C.3     1  UNL1        0.0000
    640 C         -12.5914    5.1558   20.6464 C.2     1  UNL1        0.0000
    641 C          -2.7055    9.8765   13.1453 C.3     1  UNL1        0.0000
    642 C          -9.1321   18.7797   13.1560 C.3     1  UNL1        0.0000
    643 C          -1.3830   13.5679   13.0893 C.3     1  UNL1        0.0000
    644 C         -12.0412   16.1415   13.0475 C.2     1  UNL1        0.0000
    645 C          -9.7372   11.5357   20.1919 C.ar    1  UNL1        0.0000
    646 C          -8.1716    9.4755   21.2793 C.ar    1  UNL1        0.0000
    647 C          -5.5650   17.7768   18.1862 C.ar    1  UNL1        0.0000
    648 C         -12.5057    3.1260   19.1829 C.3     1  UNL1        0.0000
    649 C          -2.5303    7.7525   14.3981 C.ar    1  UNL1        0.0000
    650 C         -13.6771   13.8529   25.0511 C.ar    1  UNL1        0.0000
    651 C           0.5701   14.4595   14.2764 C.ar    1  UNL1        0.0000
    652 C         -18.7113    8.4314   24.8896 C.3     1  UNL1        0.0000
    653 C          -3.5965   16.3496   18.2532 C.ar    1  UNL1        0.0000
    654 C         -14.4781    4.5581   19.1139 C.3     1  UNL1        0.0000
    655 C          -7.6292   10.3172   20.3077 C.ar    1  UNL1        0.0000
    656 C         -10.2746   10.6912   21.1642 C.ar    1  UNL1        0.0000
    657 C          -4.0255    7.3870   24.9041 C.ar    1  UNL1        0.0000
    658 C         -14.1407   15.4967   14.2355 C.3     1  UNL1        0.0000
    659 C          -7.1878    0.6151   25.0532 C.ar    1  UNL1        0.0000
    660 C          -9.0256   20.9644   14.4227 C.ar    1  UNL1        0.0000
    661 N          -8.9705   20.3655   15.6609 N.pl3   1  UNL1        0.0000
    662 N          -4.6046    7.2042   23.6651 N.pl3   1  UNL1        0.0000
    663 N          -3.2150   11.6242   20.7883 N.pl3   1  UNL1        0.0000
    664 N          -5.1121    2.8876   22.4352 N.pl3   1  UNL1        0.0000
    665 O          -3.9577   11.9124   18.2212 O.3     1  UNL1        0.0000
    666 O         -14.3815    8.6779   21.1114 O.3     1  UNL1        0.0000
    667 O          -7.1313    4.5450   22.8331 O.3     1  UNL1        0.0000
    668 O         -10.5840   16.9935   16.5234 O.3     1  UNL1        0.0000
    669 O          -9.7477   15.6066   18.1095 O.3     1  UNL1        0.0000
    670 O          -8.6831    4.7889   21.2065 O.3     1  UNL1        0.0000
    671 O          -2.3695   11.5881   16.6436 O.3     1  UNL1        0.0000
    672 O         -15.1925   10.0650   22.7094 O.3     1  UNL1        0.0000
    673 O          -5.0420   11.3332   15.6446 O.3     1  UNL1        0.0000
    674 O         -12.6882    9.1918   23.2097 O.3     1  UNL1        0.0000
    675 O          -4.1032   13.6205   16.0946 O.3     1  UNL1        0.0000
    676 O         -14.4404    7.4672   23.7024 O.3     1  UNL1        0.0000
    677 O          -9.8339    4.2592   23.7971 O.3     1  UNL1        0.0000
    678 O          -8.0655   16.1546   16.0252 O.3     1  UNL1        0.0000
    679 O          -8.8800    6.5207   23.3329 O.3     1  UNL1        0.0000
    680 O          -9.7717   14.3975   15.5078 O.3     1  UNL1        0.0000
    681 O          -6.6142   12.0703   18.3740 O.3     1  UNL1        0.0000
    682 O         -13.2491    6.1907   21.0246 O.2     1  UNL1        0.0000
    683 O          -7.4627    3.4050   25.0992 O.3     1  UNL1        0.0000
    684 O          -9.2152   18.0782   14.2512 O.3     1  UNL1        0.0000
    685 O          -6.6605    6.1932   25.0940 O.3     1  UNL1        0.0000
    686 O         -11.4511   16.2425   14.1911 O.2     1  UNL1        0.0000
    687 O         -11.4296    4.8612   21.1042 O.2     1  UNL1        0.0000
    688 O          -8.5771   13.1710   18.2349 O.3     1  UNL1        0.0000
    689 O          -1.9224   13.2677   14.2373 O.3     1  UNL1        0.0000
    690 O         -16.0767    9.3073   25.0251 O.2     1  UNL1        0.0000
    691 O          -2.7179   10.5134   14.2667 O.3     1  UNL1        0.0000
    692 O         -13.8085   11.0897   25.1064 O.3     1  UNL1        0.0000
    693 O          -6.8502   13.7247   16.1457 O.3     1  UNL1        0.0000
    694 O         -11.5522    6.7209   23.1267 O.3     1  UNL1        0.0000
    695 O          -4.3961   12.4996   13.2129 O.3     1  UNL1        0.0000
    696 O          -8.9638   15.6016   13.0462 O.3     1  UNL1        0.0000
    697 H         -10.7711   12.5480   25.3645 H      17  UNL17       0.0000
    698 H          -8.7038   11.3561   23.9132 H      17  UNL17       0.0000
    699 C         -10.0177   11.8262   25.6559 C.2    17  UNL17       0.0000
    700 H          -5.9652   11.2011   24.6522 H      17  UNL17       0.0000
    701 C          -9.0020   11.2429   24.9473 C.2    17  UNL17       0.0000
    702 H         -10.8037   12.7407   28.2476 H      17  UNL17       0.0000
    703 N          -9.9569   11.3115   26.9397 N.pl3  17  UNL17       0.0000
    704 C          -5.8864   10.4188   25.4172 C.3    17  UNL17       0.0000
    705 H          -5.6807   10.8936   26.3846 H      17  UNL17       0.0000
    706 C         -10.8593   11.6685   28.0394 C.3    17  UNL17       0.0000
    707 N          -8.3495   10.3751   25.8068 N.pl3  17  UNL17       0.0000
    708 H         -11.8815   11.3944   27.7719 H      17  UNL17       0.0000
    709 H          -5.0321    9.7755   25.1649 H      17  UNL17       0.0000
    710 C          -8.9414   10.4323   27.0142 C.3    17  UNL17       0.0000
    711 C          -7.1534    9.5695   25.4720 C.3    17  UNL17       0.0000
    712 H          -7.3594    9.0705   24.5171 H      17  UNL17       0.0000
    713 H         -10.5806   11.0986   28.9264 H      17  UNL17       0.0000
    714 H          -8.6522    9.8722   27.8955 H      17  UNL17       0.0000
    715 H          -7.0815    8.7868   26.2360 H      17  UNL17       0.0000
    716 TI        -18.5024    2.1282   37.4669 Ti      1  UNL1        0.0000
    717 TI         -7.6720    5.0094   28.1021 Ti      1  UNL1        0.0000
    718 TI        -14.4057   -1.8080   35.6470 Ti      1  UNL1        0.0000
    719 TI        -12.8946    7.3541   29.8739 Ti      1  UNL1        0.0000
    720 TI        -13.8931    9.0324   27.9695 Ti      1  UNL1        0.0000
    721 TI        -12.5175   -2.0624   37.6003 Ti      1  UNL1        0.0000
    722 TI        -17.5532    0.3923   35.5755 Ti      1  UNL1        0.0000
    723 TI         -9.6598    5.3119   29.9496 Ti      1  UNL1        0.0000
    724 H         -11.8925    1.4316   34.8228 H       1  UNL1        0.0000
    725 H         -15.8333   -4.3239   32.7037 H       1  UNL1        0.0000
    726 H         -10.8607   10.7546   30.8824 H       1  UNL1        0.0000
    727 H         -18.0006    6.0253   37.2475 H       5  UNL5        0.0000
    728 H          -6.8632    1.1033   28.4228 H       1  UNL1        0.0000
    729 H         -22.4623    1.3715   37.0845 H       6  UNL6        0.0000
    730 H          -4.2898    7.0137   28.3028 H       1  UNL1        0.0000
    731 H         -11.5419   -6.0969   37.2144 H       1  UNL1        0.0000
    732 H         -17.9517    8.4425   28.2916 H       1  UNL1        0.0000
    733 H         -10.9193    2.9481   33.0695 H       1  UNL1        0.0000
    734 H         -15.6111    3.5798   34.6218 H       1  UNL1        0.0000
    735 H         -19.3123   -1.7956   32.5811 H       1  UNL1        0.0000
    736 H         -13.3987    7.3956   26.0965 H       1  UNL1        0.0000
    737 H          -9.5475    4.7667   26.4022 H       1  UNL1        0.0000
    738 H         -12.0076   -2.7295   32.0892 H       1  UNL1        0.0000
    739 H         -14.6180    9.1911   33.4929 H       1  UNL1        0.0000
    740 H         -21.6259    3.7809   35.2196 H       1  UNL1        0.0000
    741 H          -4.9172    2.9251   30.4081 H       1  UNL1        0.0000
    742 H         -19.3247    2.3335   31.8857 H       1  UNL1        0.0000
    743 H         -16.9932   10.8603   30.3228 H       1  UNL1        0.0000
    744 H         -13.5009   12.1352   28.8250 H       1  UNL1        0.0000
    745 H          -7.0210   -0.9155   29.6253 H       1  UNL1        0.0000
    746 H         -10.8019    7.0342   28.5353 H       1  UNL1        0.0000
    747 H         -15.4864    0.0404   36.9406 H       1  UNL1        0.0000
    748 H          -8.2828   -0.1275   35.9900 H       7  UNL7        0.0000
    749 H          -9.7639   -0.5966   36.7373 H       7  UNL7        0.0000
    750 H          -7.7087    4.3061   34.8911 H       1  UNL1        0.0000
    751 H          -8.2784    4.6647   33.2726 H       1  UNL1        0.0000
    752 H          -8.7716   -5.0823   35.8000 H       1  UNL1        0.0000
    753 H         -10.0508   -3.9818   36.2574 H       1  UNL1        0.0000
    754 H         -14.2218    1.7727   35.5820 H       1  UNL1        0.0000
    755 H         -14.6387    5.1015   32.8675 H       1  UNL1        0.0000
    756 H          -9.6152    8.7678   30.0871 H       1  UNL1        0.0000
    757 H         -23.3790    8.7886   30.9099 H      54  UNL54       0.0000
    758 C          -7.0939    4.2681   30.9657 C.3     1  UNL1        0.0000
    759 C         -19.4630    2.3896   34.6199 C.3     1  UNL1        0.0000
    760 C         -11.8252   -2.8187   34.7222 C.3     1  UNL1        0.0000
    761 C         -14.8307    9.3246   30.8333 C.3     1  UNL1        0.0000
    762 C          -6.1979    3.6638   31.9609 C.ar    1  UNL1        0.0000
    763 C         -20.3949    3.0146   33.6429 C.2     1  UNL1        0.0000
    764 C         -10.8850   -3.4331   33.7751 C.ar    1  UNL1        0.0000
    765 C         -15.7205    9.9714   31.8331 C.ar    1  UNL1        0.0000
    766 C          -6.4467    3.7387   33.3673 C.ar    1  UNL1        0.0000
    767 C         -20.1785    2.8946   32.2548 C.3     1  UNL1        0.0000
    768 C          -9.7556   -4.1934   34.2281 C.ar    1  UNL1        0.0000
    769 C         -16.8152   10.7444   31.3882 C.ar    1  UNL1        0.0000
    770 C         -15.4660    9.8007   33.1880 C.ar    1  UNL1        0.0000
    771 C         -11.1328   -3.3009   32.3911 C.ar    1  UNL1        0.0000
    772 C          -5.0642    2.9648   31.4851 C.ar    1  UNL1        0.0000
    773 C         -21.4951    3.7070   34.1415 C.2     1  UNL1        0.0000
    774 C         -12.7220    4.1145   32.8706 C.ar    1  UNL1        0.0000
    775 C         -13.8039    2.4262   34.8182 C.ar    1  UNL1        0.0000
    776 C          -9.1764    9.4107   30.8484 C.ar    1  UNL1        0.0000
    777 C         -17.5147   -2.9752   32.7425 C.2     1  UNL1        0.0000
    778 C          -6.8822    1.1824   26.2787 C.ar    1  UNL1        0.0000
    779 C         -13.3519   12.9740   26.3037 C.ar    1  UNL1        0.0000
    780 C          -4.3977    6.9455   26.1527 C.ar    1  UNL1        0.0000
    781 C         -17.7561    8.4880   26.1333 C.2     1  UNL1        0.0000
    782 C         -12.1478    5.0109   31.8385 C.3     1  UNL1        0.0000
    783 C         -16.9039   -2.0834   33.7567 C.2     1  UNL1        0.0000
    784 C          -7.0180    2.6373   26.2555 C.3     1  UNL1        0.0000
    785 C         -13.4446   11.5405   26.2662 C.3     1  UNL1        0.0000
    786 C          -5.6956    6.3287   26.1996 C.3     1  UNL1        0.0000
    787 C         -16.3537    8.9023   26.1578 C.2     1  UNL1        0.0000
    788 C         -14.0497    4.2965   33.3021 C.ar    1  UNL1        0.0000
    789 C         -12.4842    2.2363   34.3896 C.ar    1  UNL1        0.0000
    790 C          -9.8775   10.5376   31.2965 C.ar    1  UNL1        0.0000
    791 C         -16.8182   -4.1132   32.2931 C.3     1  UNL1        0.0000
    792 C          -6.8428    0.5133   27.5084 C.ar    1  UNL1        0.0000
    793 C         -17.9896    6.6137   38.1614 C.3     5  UNL5        0.0000
    794 C          -3.7424    7.2203   27.3867 C.ar    1  UNL1        0.0000
    795 C         -23.0238    1.1922   37.9999 C.3    19  UNL19       0.0000
    796 C          -7.9091    9.1104   31.3634 C.ar    1  UNL1        0.0000
    797 C         -18.7906   -2.6811   32.2242 C.3     1  UNL1        0.0000
    798 C         -11.9417    3.0780   33.4180 C.ar    1  UNL1        0.0000
    799 C         -14.5872    3.4520   34.2745 C.ar    1  UNL1        0.0000
    800 C          -8.3381    0.1478   38.0143 C.3     7  UNL7        0.0000
    801 C         -18.4532    8.2575   27.3458 C.3     1  UNL1        0.0000
    802 C         -11.5003   -6.6241   38.1635 C.3     1  UNL1        0.0000
    803 C         -13.3381   13.7252   27.5330 C.ar    1  UNL1        0.0000
    804 N         -13.2830   13.1263   28.7712 N.pl3   1  UNL1        0.0000
    805 N          -8.9171   -0.0350   36.7754 N.3     7  UNL7        0.0000
    806 N          -7.5276    4.3850   33.8986 N.pl3   1  UNL1        0.0000
    807 N          -9.4246   -4.3516   35.5455 N.pl3   1  UNL1        0.0000
    808 O          -8.2703    4.6732   31.3315 O.3     1  UNL1        0.0000
    809 O         -18.6940    1.4387   34.2216 O.3     1  UNL1        0.0000
    810 O         -11.4438   -2.6943   35.9434 O.3     1  UNL1        0.0000
    811 O         -14.8965    9.7543   29.6337 O.3     1  UNL1        0.0000
    812 O         -14.0602    8.3674   31.2197 O.3     1  UNL1        0.0000
    813 O         -12.9957   -2.4503   34.3167 O.3     1  UNL1        0.0000
    814 O          -6.6821    4.3489   29.7539 O.3     1  UNL1        0.0000
    815 O         -19.5050    2.8258   35.8196 O.3     1  UNL1        0.0000
    816 O          -9.3546    4.0940   28.7549 O.3     1  UNL1        0.0000
    817 O         -17.0008    1.9526   36.3200 O.3     1  UNL1        0.0000
    818 O          -8.4158    6.3813   29.2049 O.3     1  UNL1        0.0000
    819 O         -18.7530    0.2280   36.8127 O.3     1  UNL1        0.0000
    820 O         -14.1464   -2.9800   36.9074 O.3     1  UNL1        0.0000
    821 O         -12.3780    8.9154   29.1355 O.3     1  UNL1        0.0000
    822 O         -13.1925   -0.7185   36.4432 O.3     1  UNL1        0.0000
    823 O         -14.0842    7.1583   28.6180 O.3     1  UNL1        0.0000
    824 O         -10.9267    4.8311   31.4843 O.3     1  UNL1        0.0000
    825 O         -17.5616   -1.0485   34.1349 O.2     1  UNL1        0.0000
    826 O         -11.7752   -3.8342   38.2094 O.3     1  UNL1        0.0000
    827 O         -13.5277   10.8390   27.3614 O.3     1  UNL1        0.0000
    828 O         -10.9731   -1.0460   38.2043 O.3     1  UNL1        0.0000
    829 O         -15.7637    9.0033   27.3014 O.2     1  UNL1        0.0000
    830 O         -15.7421   -2.3780   34.2145 O.2     1  UNL1        0.0000
    831 O         -12.8897    5.9318   31.3452 O.3     1  UNL1        0.0000
    832 O          -6.2349    6.0285   27.3476 O.3     1  UNL1        0.0000
    833 O         -20.3892    2.0681   38.1354 O.3     1  UNL1        0.0000
    834 O          -7.0305    3.2742   27.3770 O.3     1  UNL1        0.0000
    835 O         -18.1210    3.8505   38.2167 O.3     1  UNL1        0.0000
    836 O         -11.1628    6.4855   29.2560 O.3     1  UNL1        0.0000
    837 O         -15.8647   -0.5183   36.2370 O.3     1  UNL1        0.0000
    838 O          -8.7087    5.2604   26.3232 O.3     1  UNL1        0.0000
    839 O         -13.2763    8.3624   26.1564 O.3     1  UNL1        0.0000
    840 H         -15.0836    5.3088   38.4748 H      20  UNL20       0.0000
    841 H         -13.0164    4.1169   37.0234 H      20  UNL20       0.0000
    842 C         -14.3302    4.5870   38.7661 C.2    20  UNL20       0.0000
    843 H         -10.2777    3.9619   37.7625 H      20  UNL20       0.0000
    844 C         -13.3145    4.0037   38.0576 C.2    20  UNL20       0.0000
    845 H         -15.1162    5.5015   41.3578 H      20  UNL20       0.0000
    846 N         -14.2695    4.0723   40.0500 N.pl3  20  UNL20       0.0000
    847 C         -10.1989    3.1796   38.5275 C.3    20  UNL20       0.0000
    848 H          -9.9933    3.6544   39.4949 H      20  UNL20       0.0000
    849 C         -15.1718    4.4293   41.1497 C.3    20  UNL20       0.0000
    850 N         -12.6621    3.1359   38.9171 N.pl3  20  UNL20       0.0000
    851 H         -16.1940    4.1552   40.8821 H      20  UNL20       0.0000
    852 H          -9.3446    2.5363   38.2752 H      20  UNL20       0.0000
    853 C         -13.2539    3.1931   40.1245 C.3    20  UNL20       0.0000
    854 C         -11.4660    2.3302   38.5822 C.3    20  UNL20       0.0000
    855 H         -11.6719    1.8313   37.6274 H      20  UNL20       0.0000
    856 H         -14.8931    3.8594   42.0367 H      20  UNL20       0.0000
    857 H         -12.9647    2.6330   41.0058 H      20  UNL20       0.0000
    858 H         -11.3940    1.5476   39.3462 H      20  UNL20       0.0000
    859 TI        -16.8993   30.9834   11.2464 Ti      1  UNL1        0.0000
    860 TI         -6.0688   33.8646    1.8816 Ti      1  UNL1        0.0000
    861 TI        -12.8026   27.0472    9.4264 Ti      1  UNL1        0.0000
    862 TI        -11.2914   36.2093    3.6534 Ti      1  UNL1        0.0000
    863 TI        -12.2900   37.8876    1.7490 Ti      1  UNL1        0.0000
    864 TI        -10.9144   26.7928   11.3798 Ti      1  UNL1        0.0000
    865 TI        -15.9501   29.2475    9.3549 Ti      1  UNL1        0.0000
    866 TI         -8.0567   34.1672    3.7291 Ti      1  UNL1        0.0000
    867 H         -10.2894   30.2868    8.6022 H       1  UNL1        0.0000
    868 H         -14.2301   24.5313    6.4832 H       1  UNL1        0.0000
    869 H          -9.2576   39.6098    4.6619 H       8  UNL8        0.0000
    870 H         -16.3974   34.8805   11.0269 H       1  UNL1        0.0000
    871 H          -5.2601   29.9585    2.2023 H       1  UNL1        0.0000
    872 H         -20.8592   30.2268   10.8639 H       1  UNL1        0.0000
    873 H          -2.6867   35.8689    2.0822 H       1  UNL1        0.0000
    874 H          -9.9388   22.7583   10.9939 H       1  UNL1        0.0000
    875 H         -16.3485   37.2977    2.0711 H       1  UNL1        0.0000
    876 H          -9.3162   31.8033    6.8490 H       1  UNL1        0.0000
    877 H         -14.0080   32.4351    8.4012 H       1  UNL1        0.0000
    878 H         -17.7092   27.0596    6.3606 H       1  UNL1        0.0000
    879 H         -11.7955   36.2508   -0.1241 H       1  UNL1        0.0000
    880 H          -7.9444   33.6219    0.1817 H       1  UNL1        0.0000
    881 H         -10.4045   26.1257    5.8687 H       1  UNL1        0.0000
    882 H         -13.0149   38.0463    7.2723 H       1  UNL1        0.0000
    883 H         -20.0227   32.6361    8.9990 H       1  UNL1        0.0000
    884 H          -3.3141   31.7803    4.1876 H       1  UNL1        0.0000
    885 H         -17.7216   31.1887    5.6652 H       1  UNL1        0.0000
    886 H         -15.3901   39.7155    4.1022 H       1  UNL1        0.0000
    887 H         -11.8978   40.9905    2.6045 H       1  UNL1        0.0000
    888 H          -5.4179   27.9397    3.4048 H       1  UNL1        0.0000
    889 H          -9.1988   35.8895    2.3148 H       1  UNL1        0.0000
    890 H         -13.8833   28.8956   10.7200 H       1  UNL1        0.0000
    891 H          -6.6797   28.7277    9.7694 H       1  UNL1        0.0000
    892 H          -8.1608   28.2586   10.5168 H       1  UNL1        0.0000
    893 H          -6.1056   33.1613    8.6705 H       1  UNL1        0.0000
    894 H          -6.6753   33.5199    7.0520 H       1  UNL1        0.0000
    895 H          -7.1685   23.7729    9.5794 H       1  UNL1        0.0000
    896 H          -8.4476   24.8734   10.0368 H       1  UNL1        0.0000
    897 H         -12.6187   30.6279    9.3615 H       1  UNL1        0.0000
    898 H         -13.0355   33.9567    6.6470 H       1  UNL1        0.0000
    899 H          -8.0121   37.6230    3.8665 H       8  UNL8        0.0000
    900 H         -21.7758   37.6438    4.6894 H      54  UNL54       0.0000
    901 C          -5.4908   33.1234    4.7451 C.3     1  UNL1        0.0000
    902 C         -17.8599   31.2448    8.3994 C.3     1  UNL1        0.0000
    903 C         -10.2221   26.0365    8.5017 C.3     1  UNL1        0.0000
    904 C         -13.2275   38.1798    4.6127 C.3     1  UNL1        0.0000
    905 C          -4.5948   32.5190    5.7403 C.ar    1  UNL1        0.0000
    906 C         -18.7918   31.8698    7.4223 C.2     1  UNL1        0.0000
    907 C          -9.2819   25.4221    7.5545 C.ar    1  UNL1        0.0000
    908 C         -14.1174   38.8266    5.6125 C.2     1  UNL1        0.0000
    909 C          -4.8435   32.5940    7.1467 C.ar    1  UNL1        0.0000
    910 C         -18.5754   31.7498    6.0343 C.3     1  UNL1        0.0000
    911 C          -8.1525   24.6618    8.0076 C.ar    1  UNL1        0.0000
    912 C         -15.2121   39.5996    5.1676 C.3     1  UNL1        0.0000
    913 C         -13.8629   38.6559    6.9674 C.2     1  UNL1        0.0000
    914 C          -9.5296   25.5543    6.1706 C.ar    1  UNL1        0.0000
    915 C          -3.4611   31.8201    5.2646 C.ar    1  UNL1        0.0000
    916 C         -19.8919   32.5622    7.9210 C.2     1  UNL1        0.0000
    917 C         -11.1189   32.9697    6.6500 C.ar    1  UNL1        0.0000
    918 C         -12.2008   31.2814    8.5977 C.ar    1  UNL1        0.0000
    919 C          -7.5733   38.2659    4.6279 C.2     8  UNL8        0.0000
    920 C         -15.9116   25.8800    6.5220 C.2     1  UNL1        0.0000
    921 C          -5.2790   30.0376    0.0582 C.2     1  UNL1        0.0000
    922 C         -11.7488   41.8292    0.0832 C.2     1  UNL1        0.0000
    923 C          -2.7946   35.8007   -0.0678 C.2     1  UNL1        0.0000
    924 C         -16.1529   37.3432   -0.0872 C.2     1  UNL1        0.0000
    925 C         -10.5447   33.8661    5.6180 C.3     1  UNL1        0.0000
    926 C         -15.3008   26.7718    7.5361 C.2     1  UNL1        0.0000
    927 C          -5.4149   31.4925    0.0350 C.2     1  UNL1        0.0000
    928 C         -11.8415   40.3957    0.0457 C.2     1  UNL1        0.0000
    929 C          -4.0924   35.1839   -0.0210 C.2     1  UNL1        0.0000
    930 C         -14.7506   37.7575   -0.0628 C.2     1  UNL1        0.0000
    931 C         -12.4466   33.1517    7.0816 C.ar    1  UNL1        0.0000
    932 C         -10.8811   31.0915    8.1690 C.ar    1  UNL1        0.0000
    933 C          -8.2744   39.3929    5.0759 C.2     8  UNL8        0.0000
    934 C         -15.2151   24.7420    6.0726 C.3     1  UNL1        0.0000
    935 C          -5.2397   29.3685    1.2879 C.3     1  UNL1        0.0000
    936 C         -16.3865   35.4689   11.9408 C.3     1  UNL1        0.0000
    937 C          -2.1393   36.0755    1.1661 C.3     1  UNL1        0.0000
    938 C         -21.4207   30.0474   11.7793 C.3     1  UNL1        0.0000
    939 C          -6.3059   37.9656    5.1429 C.3     8  UNL8        0.0000
    940 C         -17.1875   26.1741    6.0036 C.3     1  UNL1        0.0000
    941 C         -10.3386   31.9332    7.1974 C.ar    1  UNL1        0.0000
    942 C         -12.9840   32.3072    8.0540 C.ar    1  UNL1        0.0000
    943 C          -6.7349   29.0030   11.7938 C.ar    1  UNL1        0.0000
    944 C         -16.8501   37.1127    1.1253 C.3     1  UNL1        0.0000
    945 C          -9.8972   22.2311   11.9429 C.ar    1  UNL1        0.0000
    946 C         -11.7350   42.5804    1.3125 C.3     1  UNL1        0.0000
    947 N         -11.6799   41.9816    2.5506 N.3     1  UNL1        0.0000
    948 N          -7.3140   28.8202   10.5548 N.pl3   1  UNL1        0.0000
    949 N          -5.9244   33.2402    7.6780 N.pl3   1  UNL1        0.0000
    950 N          -7.8215   24.5036    9.3250 N.pl3   1  UNL1        0.0000
    951 O          -6.6671   33.5285    5.1109 O.3     1  UNL1        0.0000
    952 O         -17.0909   30.2939    8.0011 O.3     1  UNL1        0.0000
    953 O          -9.8407   26.1610    9.7228 O.3     1  UNL1        0.0000
    954 O         -13.2934   38.6095    3.4131 O.3     1  UNL1        0.0000
    955 O         -12.4571   37.2226    4.9992 O.3     1  UNL1        0.0000
    956 O         -11.3925   26.4049    8.0962 O.3     1  UNL1        0.0000
    957 O          -5.0789   33.2041    3.5334 O.3     1  UNL1        0.0000
    958 O         -17.9019   31.6810    9.5991 O.3     1  UNL1        0.0000
    959 O          -7.7514   32.9492    2.5344 O.3     1  UNL1        0.0000
    960 O         -15.3976   30.8079   10.0994 O.3     1  UNL1        0.0000
    961 O          -6.8126   35.2365    2.9843 O.3     1  UNL1        0.0000
    962 O         -17.1498   29.0832   10.5921 O.3     1  UNL1        0.0000
    963 O         -12.5433   25.8752   10.6868 O.3     1  UNL1        0.0000
    964 O         -10.7749   37.7706    2.9149 O.3     1  UNL1        0.0000
    965 O         -11.5894   28.1367   10.2227 O.3     1  UNL1        0.0000
    966 O         -12.4811   36.0135    2.3975 O.3     1  UNL1        0.0000
    967 O          -9.3236   33.6863    5.2637 O.3     1  UNL1        0.0000
    968 O         -15.9585   27.8067    7.9143 O.2     1  UNL1        0.0000
    969 O         -10.1721   25.0210   11.9889 O.3     1  UNL1        0.0000
    970 O         -11.9246   39.6942    1.1409 O.2     1  UNL1        0.0000
    971 O          -9.3699   27.8092   11.9838 O.3     1  UNL1        0.0000
    972 O         -14.1606   37.8585    1.0808 O.2     1  UNL1        0.0000
    973 O         -14.1390   26.4772    7.9939 O.2     1  UNL1        0.0000
    974 O         -11.2865   34.7870    5.1246 O.3     1  UNL1        0.0000
    975 O          -4.6318   34.8837    1.1270 O.2     1  UNL1        0.0000
    976 O         -18.7861   30.9233   11.9148 O.2     1  UNL1        0.0000
    977 O          -5.4273   32.1294    1.1564 O.2     1  UNL1        0.0000
    978 O         -16.5179   32.7057   11.9961 O.2     1  UNL1        0.0000
    979 O          -9.5596   35.3407    3.0354 O.3     1  UNL1        0.0000
    980 O         -14.2616   28.3369   10.0165 O.3     1  UNL1        0.0000
    981 O          -7.1055   34.1156    0.1026 O.3     1  UNL1        0.0000
    982 O         -11.6732   37.2176   -0.0641 O.3     1  UNL1        0.0000
    983 H         -13.4805   34.1640   12.2543 H      22  UNL22       0.0000
    984 H         -11.4132   32.9722   10.8029 H      22  UNL22       0.0000
    985 C         -12.7271   33.4422   12.5456 C.2    22  UNL22       0.0000
    986 H          -8.6746   32.8171   11.5420 H      22  UNL22       0.0000
    987 C         -11.7114   32.8589   11.8370 C.2    22  UNL22       0.0000
    988 H         -13.5131   34.3567   15.1373 H      22  UNL22       0.0000
    989 N         -12.6663   32.9275   13.8294 N.pl3  22  UNL22       0.0000
    990 C          -8.5958   32.0348   12.3070 C.3    22  UNL22       0.0000
    991 H          -8.3901   32.5096   13.2744 H      22  UNL22       0.0000
    992 C         -13.5687   33.2845   14.9291 C.3    22  UNL22       0.0000
    993 N         -11.0589   31.9911   12.6966 N.pl3  22  UNL22       0.0000
    994 H         -14.5909   33.0104   14.6616 H      22  UNL22       0.0000
    995 H          -7.7415   31.3916   12.0546 H      22  UNL22       0.0000
    996 C         -11.6508   32.0483   13.9040 C.3    22  UNL22       0.0000
    997 C          -9.8628   31.1855   12.3617 C.3    22  UNL22       0.0000
    998 H         -10.0688   30.6865   11.4068 H      22  UNL22       0.0000
    999 H         -13.2900   32.7146   15.8161 H      22  UNL22       0.0000
   1000 H         -11.3616   31.4882   14.7852 H      22  UNL22       0.0000
   1001 H          -9.7909   30.4028   13.1257 H      22  UNL22       0.0000
   1002 TI        -21.2118   23.7442   24.3567 Ti      1  UNL1        0.0000
   1003 TI        -10.3814   26.6254   14.9919 Ti      1  UNL1        0.0000
   1004 TI        -17.1152   19.8080   22.5367 Ti      1  UNL1        0.0000
   1005 TI        -15.6040   28.9701   16.7637 Ti      1  UNL1        0.0000
   1006 TI        -16.6025   30.6484   14.8593 Ti      1  UNL1        0.0000
   1007 TI        -15.2270   19.5536   24.4901 Ti      1  UNL1        0.0000
   1008 TI        -20.2626   22.0083   22.4652 Ti      1  UNL1        0.0000
   1009 TI        -12.3692   26.9280   16.8393 Ti      1  UNL1        0.0000
   1010 H         -14.6019   23.0476   21.7125 H       1  UNL1        0.0000
   1011 H         -18.5427   17.2921   19.5935 H       1  UNL1        0.0000
   1012 H         -13.5701   32.3706   17.7721 H       9  UNL9        0.0000
   1013 H         -20.7100   27.6413   24.1372 H       1  UNL1        0.0000
   1014 H          -9.5726   22.7193   15.3125 H       1  UNL1        0.0000
   1015 H         -25.1717   22.9876   23.9742 H       1  UNL1        0.0000
   1016 H          -6.9992   28.6297   15.1925 H       1  UNL1        0.0000
   1017 H         -14.2513   15.5191   24.1041 H       1  UNL1        0.0000
   1018 H         -20.6611   30.0585   15.1813 H       1  UNL1        0.0000
   1019 H         -13.6287   24.5641   19.9593 H       1  UNL1        0.0000
   1020 H         -18.3205   25.1959   21.5115 H       1  UNL1        0.0000
   1021 H         -22.0217   19.8204   19.4709 H       1  UNL1        0.0000
   1022 H         -16.1081   29.0116   12.9862 H       1  UNL1        0.0000
   1023 H         -12.2569   26.3827   13.2919 H       1  UNL1        0.0000
   1024 H         -14.7170   18.8865   18.9790 H       1  UNL1        0.0000
   1025 H         -17.3274   30.8071   20.3826 H       1  UNL1        0.0000
   1026 H         -24.3353   25.3969   22.1093 H       1  UNL1        0.0000
   1027 H          -7.6266   24.5411   17.2979 H       1  UNL1        0.0000
   1028 H         -22.0342   23.9495   18.7754 H       1  UNL1        0.0000
   1029 H         -19.7026   32.4763   17.2125 H       1  UNL1        0.0000
   1030 H         -16.2103   33.7513   15.7147 H       1  UNL1        0.0000
   1031 H          -9.7304   20.7005   16.5150 H       1  UNL1        0.0000
   1032 H         -13.5113   28.6502   15.4250 H       1  UNL1        0.0000
   1033 H         -18.1959   21.6564   23.8303 H       1  UNL1        0.0000
   1034 H         -10.9922   21.4885   22.8797 H       1  UNL1        0.0000
   1035 H         -12.4733   21.0194   23.6271 H       1  UNL1        0.0000
   1036 H         -10.4181   25.9221   21.7808 H       1  UNL1        0.0000
   1037 H         -10.9878   26.2807   20.1623 H       1  UNL1        0.0000
   1038 H         -11.4810   16.5337   22.6897 H       1  UNL1        0.0000
   1039 H         -12.7602   17.6342   23.1471 H       1  UNL1        0.0000
   1040 H         -16.9312   23.3887   22.4717 H       1  UNL1        0.0000
   1041 H         -17.3481   26.7175   19.7572 H       1  UNL1        0.0000
   1042 H         -12.3246   30.3838   16.9768 H       9  UNL9        0.0000
   1043 H         -26.0884   30.4046   17.7996 H      54  UNL54       0.0000
   1044 C          -9.8033   25.8842   17.8554 C.3     1  UNL1        0.0000
   1045 C         -22.1724   24.0056   21.5096 C.3     1  UNL1        0.0000
   1046 C         -14.5347   18.7973   21.6120 C.3     1  UNL1        0.0000
   1047 C         -17.5401   30.9406   17.7230 C.3     1  UNL1        0.0000
   1048 C          -8.9073   25.2798   18.8506 C.ar    1  UNL1        0.0000
   1049 C         -23.1043   24.6306   20.5326 C.2     1  UNL1        0.0000
   1050 C         -13.5945   18.1829   20.6648 C.ar    1  UNL1        0.0000
   1051 C         -18.4299   31.5874   18.7228 C.2     1  UNL1        0.0000
   1052 C          -9.1561   25.3548   20.2570 C.ar    1  UNL1        0.0000
   1053 C         -22.8879   24.5106   19.1446 C.3     1  UNL1        0.0000
   1054 C         -12.4650   17.4226   21.1178 C.ar    1  UNL1        0.0000
   1055 C         -19.5246   32.3604   18.2779 C.3     1  UNL1        0.0000
   1056 C         -18.1754   31.4167   20.0777 C.2     1  UNL1        0.0000
   1057 C         -13.8422   18.3151   19.2809 C.ar    1  UNL1        0.0000
   1058 C          -7.7736   24.5809   18.3749 C.ar    1  UNL1        0.0000
   1059 C         -24.2045   25.3230   21.0313 C.2     1  UNL1        0.0000
   1060 C         -15.4314   25.7305   19.7603 C.ar    1  UNL1        0.0000
   1061 C         -16.5133   24.0422   21.7080 C.ar    1  UNL1        0.0000
   1062 C         -11.8858   31.0267   17.7381 C.2     9  UNL9        0.0000
   1063 C         -20.2241   18.6408   19.6322 C.2     1  UNL1        0.0000
   1064 C          -9.5916   22.7984   13.1685 C.ar    1  UNL1        0.0000
   1065 C         -16.0613   34.5900   13.1935 C.2     1  UNL1        0.0000
   1066 C          -7.1071   28.5615   13.0424 C.ar    1  UNL1        0.0000
   1067 C         -20.4655   30.1040   13.0231 C.2     1  UNL1        0.0000
   1068 C         -14.8572   26.6269   18.7283 C.3     1  UNL1        0.0000
   1069 C         -19.6133   19.5326   20.6464 C.2     1  UNL1        0.0000
   1070 C          -9.7274   24.2533   13.1453 C.3     1  UNL1        0.0000
   1071 C         -16.1540   33.1565   13.1560 C.2     1  UNL1        0.0000
   1072 C          -8.4050   27.9447   13.0893 C.3     1  UNL1        0.0000
   1073 C         -19.0631   30.5183   13.0475 C.2     1  UNL1        0.0000
   1074 C         -16.7591   25.9125   20.1919 C.ar    1  UNL1        0.0000
   1075 C         -15.1936   23.8523   21.2793 C.ar    1  UNL1        0.0000
   1076 C         -12.5869   32.1537   18.1862 C.2     9  UNL9        0.0000
   1077 C         -19.5276   17.5028   19.1829 C.3     1  UNL1        0.0000
   1078 C          -9.5522   22.1293   14.3981 C.ar    1  UNL1        0.0000
   1079 C         -20.6990   28.2297   25.0511 C.3     1  UNL1        0.0000
   1080 C          -6.4518   28.8363   14.2764 C.ar    1  UNL1        0.0000
   1081 C         -25.7332   22.8082   24.8896 C.3     1  UNL1        0.0000
   1082 C         -10.6185   30.7264   18.2532 C.3     9  UNL9        0.0000
   1083 C         -21.5000   18.9349   19.1139 C.3     1  UNL1        0.0000
   1084 C         -14.6511   24.6940   20.3077 C.ar    1  UNL1        0.0000
   1085 C         -17.2966   25.0680   21.1642 C.ar    1  UNL1        0.0000
   1086 C         -11.0475   21.7638   24.9041 C.ar    1  UNL1        0.0000
   1087 C         -21.1626   29.8735   14.2355 C.3     1  UNL1        0.0000
   1088 C         -14.2097   14.9919   25.0532 C.ar    1  UNL1        0.0000
   1089 C         -16.0475   35.3412   14.4227 C.3     1  UNL1        0.0000
   1090 N         -15.9925   34.7424   15.6609 N.3     1  UNL1        0.0000
   1091 N         -11.6265   21.5810   23.6651 N.pl3   1  UNL1        0.0000
   1092 N         -10.2370   26.0010   20.7883 N.pl3   1  UNL1        0.0000
   1093 N         -12.1340   17.2644   22.4352 N.pl3   1  UNL1        0.0000
   1094 O         -10.9797   26.2893   18.2212 O.3     1  UNL1        0.0000
   1095 O         -21.4034   23.0547   21.1114 O.3     1  UNL1        0.0000
   1096 O         -14.1532   18.9218   22.8331 O.3     1  UNL1        0.0000
   1097 O         -17.6060   31.3703   16.5234 O.3     1  UNL1        0.0000
   1098 O         -16.7696   29.9834   18.1095 O.3     1  UNL1        0.0000
   1099 O         -15.7051   19.1657   21.2065 O.3     1  UNL1        0.0000
   1100 O          -9.3915   25.9649   16.6436 O.3     1  UNL1        0.0000
   1101 O         -22.2144   24.4418   22.7094 O.3     1  UNL1        0.0000
   1102 O         -12.0640   25.7100   15.6446 O.3     1  UNL1        0.0000
   1103 O         -19.7102   23.5687   23.2097 O.3     1  UNL1        0.0000
   1104 O         -11.1252   27.9973   16.0946 O.3     1  UNL1        0.0000
   1105 O         -21.4624   21.8440   23.7024 O.3     1  UNL1        0.0000
   1106 O         -16.8558   18.6360   23.7971 O.3     1  UNL1        0.0000
   1107 O         -15.0874   30.5314   16.0252 O.3     1  UNL1        0.0000
   1108 O         -15.9019   20.8975   23.3329 O.3     1  UNL1        0.0000
   1109 O         -16.7936   28.7743   15.5078 O.3     1  UNL1        0.0000
   1110 O         -13.6361   26.4471   18.3740 O.3     1  UNL1        0.0000
   1111 O         -20.2710   20.5675   21.0246 O.2     1  UNL1        0.0000
   1112 O         -14.4846   17.7818   25.0992 O.3     1  UNL1        0.0000
   1113 O         -16.2372   32.4550   14.2512 O.2     1  UNL1        0.0000
   1114 O         -13.6825   20.5700   25.0940 O.3     1  UNL1        0.0000
   1115 O         -18.4731   30.6193   14.1911 O.2     1  UNL1        0.0000
   1116 O         -18.4515   19.2380   21.1042 O.2     1  UNL1        0.0000
   1117 O         -15.5991   27.5478   18.2349 O.3     1  UNL1        0.0000
   1118 O          -8.9443   27.6445   14.2373 O.3     1  UNL1        0.0000
   1119 O         -23.0986   23.6841   25.0251 O.2     1  UNL1        0.0000
   1120 O          -9.7399   24.8902   14.2667 O.3     1  UNL1        0.0000
   1121 O         -20.8304   25.4665   25.1064 O.2     1  UNL1        0.0000
   1122 O         -13.8722   28.1015   16.1457 O.3     1  UNL1        0.0000
   1123 O         -18.5741   21.0977   23.1267 O.3     1  UNL1        0.0000
   1124 O         -11.4181   26.8764   13.2129 O.3     1  UNL1        0.0000
   1125 O         -15.9857   29.9784   13.0462 O.3     1  UNL1        0.0000
   1126 H         -17.7930   26.9248   25.3645 H      24  UNL24       0.0000
   1127 H         -15.7258   25.7330   23.9132 H      24  UNL24       0.0000
   1128 C         -17.0396   26.2030   25.6559 C.2    24  UNL24       0.0000
   1129 H         -12.9871   25.5779   24.6522 H      24  UNL24       0.0000
   1130 C         -16.0239   25.6197   24.9473 C.2    24  UNL24       0.0000
   1131 H         -17.8256   27.1175   28.2476 H      24  UNL24       0.0000
   1132 N         -16.9789   25.6883   26.9397 N.pl3  24  UNL24       0.0000
   1133 C         -12.9083   24.7956   25.4172 C.3    24  UNL24       0.0000
   1134 H         -12.7027   25.2704   26.3846 H      24  UNL24       0.0000
   1135 C         -17.8812   26.0453   28.0394 C.3    24  UNL24       0.0000
   1136 N         -15.3715   24.7519   25.8068 N.pl3  24  UNL24       0.0000
   1137 H         -18.9034   25.7712   27.7719 H      24  UNL24       0.0000
   1138 H         -12.0540   24.1524   25.1649 H      24  UNL24       0.0000
   1139 C         -15.9633   24.8091   27.0142 C.3    24  UNL24       0.0000
   1140 C         -14.1754   23.9463   25.4720 C.3    24  UNL24       0.0000
   1141 H         -14.3813   23.4473   24.5171 H      24  UNL24       0.0000
   1142 H         -17.6025   25.4754   28.9264 H      24  UNL24       0.0000
   1143 H         -15.6741   24.2490   27.8955 H      24  UNL24       0.0000
   1144 H         -14.1034   23.1636   26.2360 H      24  UNL24       0.0000
   1145 TI        -25.5244   16.5050   37.4669 Ti      1  UNL1        0.0000
   1146 TI        -14.6939   19.3862   28.1021 Ti      1  UNL1        0.0000
   1147 TI        -21.4277   12.5688   35.6470 Ti      1  UNL1        0.0000
   1148 TI        -19.9165   21.7309   29.8739 Ti      1  UNL1        0.0000
   1149 TI        -20.9151   23.4092   27.9695 Ti      1  UNL1        0.0000
   1150 TI        -19.5395   12.3144   37.6003 Ti      1  UNL1        0.0000
   1151 TI        -24.5752   14.7691   35.5755 Ti      1  UNL1        0.0000
   1152 TI        -16.6817   19.6887   29.9496 Ti      1  UNL1        0.0000
   1153 H         -18.9144   15.8084   34.8228 H       1  UNL1        0.0000
   1154 H         -22.8552   10.0529   32.7037 H       1  UNL1        0.0000
   1155 H         -17.8826   25.1314   30.8824 H      10  UNL10       0.0000
   1156 H         -25.0225   20.4021   37.2475 H      11  UNL11       0.0000
   1157 H         -13.8851   15.4801   28.4228 H       1  UNL1        0.0000
   1158 H         -29.4843   15.7484   37.0845 H      12  UNL12       0.0000
   1159 H         -11.3117   21.3905   28.3028 H       1  UNL1        0.0000
   1160 H         -18.5639    8.2799   37.2144 H       5  UNL5        0.0000
   1161 H         -24.9736   22.8193   28.2916 H       1  UNL1        0.0000
   1162 H         -17.9412   17.3249   33.0695 H       1  UNL1        0.0000
   1163 H         -22.6331   17.9566   34.6218 H       1  UNL1        0.0000
   1164 H         -26.3343   12.5812   32.5811 H       1  UNL1        0.0000
   1165 H         -20.4206   21.7724   26.0965 H       1  UNL1        0.0000
   1166 H         -16.5694   19.1435   26.4022 H       1  UNL1        0.0000
   1167 H         -19.0296   11.6473   32.0892 H       1  UNL1        0.0000
   1168 H         -21.6399   23.5679   33.4929 H       1  UNL1        0.0000
   1169 H         -28.6478   18.1577   35.2196 H       1  UNL1        0.0000
   1170 H         -11.9391   17.3019   30.4081 H       1  UNL1        0.0000
   1171 H         -26.3467   16.7103   31.8857 H       1  UNL1        0.0000
   1172 H         -24.0151   25.2371   30.3228 H       1  UNL1        0.0000
   1173 H         -20.5228   26.5121   28.8250 H       1  UNL1        0.0000
   1174 H         -14.0429   13.4613   29.6253 H       1  UNL1        0.0000
   1175 H         -17.8239   21.4110   28.5353 H       1  UNL1        0.0000
   1176 H         -22.5084   14.4172   36.9406 H       1  UNL1        0.0000
   1177 H         -15.3047   14.2493   35.9900 H      13  UNL13       0.0000
   1178 H         -16.7859   13.7802   36.7373 H      13  UNL13       0.0000
   1179 H         -14.7306   18.6829   34.8911 H       1  UNL1        0.0000
   1180 H         -15.3003   19.0415   33.2726 H       1  UNL1        0.0000
   1181 H         -15.7936    9.2945   35.8000 H       1  UNL1        0.0000
   1182 H         -17.0727   10.3950   36.2574 H       1  UNL1        0.0000
   1183 H         -21.2437   16.1495   35.5820 H       1  UNL1        0.0000
   1184 H         -21.6606   19.4783   32.8675 H       1  UNL1        0.0000
   1185 H         -16.6372   23.1446   30.0871 H      10  UNL10       0.0000
   1186 H         -30.4009   23.1654   30.9099 H      54  UNL54       0.0000
   1187 C         -14.1159   18.6450   30.9657 C.3     1  UNL1        0.0000
   1188 C         -26.4849   16.7664   34.6199 C.3     1  UNL1        0.0000
   1189 C         -18.8472   11.5581   34.7222 C.3     1  UNL1        0.0000
   1190 C         -21.8526   23.7014   30.8333 C.3     1  UNL1        0.0000
   1191 C         -13.2198   18.0406   31.9609 C.ar    1  UNL1        0.0000
   1192 C         -27.4168   17.3914   33.6429 C.2     1  UNL1        0.0000
   1193 C         -17.9070   10.9437   33.7751 C.ar    1  UNL1        0.0000
   1194 C         -22.7424   24.3482   31.8331 C.2     1  UNL1        0.0000
   1195 C         -13.4686   18.1156   33.3673 C.ar    1  UNL1        0.0000
   1196 C         -27.2004   17.2714   32.2548 C.3     1  UNL1        0.0000
   1197 C         -16.7775   10.1834   34.2281 C.ar    1  UNL1        0.0000
   1198 C         -23.8372   25.1212   31.3882 C.3     1  UNL1        0.0000
   1199 C         -22.4879   24.1775   33.1880 C.2     1  UNL1        0.0000
   1200 C         -18.1547   11.0759   32.3911 C.ar    1  UNL1        0.0000
   1201 C         -12.0862   17.3417   31.4851 C.ar    1  UNL1        0.0000
   1202 C         -28.5170   18.0838   34.1415 C.2     1  UNL1        0.0000
   1203 C         -19.7440   18.4913   32.8706 C.ar    1  UNL1        0.0000
   1204 C         -20.8259   16.8030   34.8182 C.ar    1  UNL1        0.0000
   1205 C         -16.1984   23.7875   30.8484 C.2    10  UNL10       0.0000
   1206 C         -24.5367   11.4016   32.7425 C.2     1  UNL1        0.0000
   1207 C         -13.9041   15.5592   26.2787 C.ar    1  UNL1        0.0000
   1208 C         -20.3738   27.3508   26.3037 C.2     1  UNL1        0.0000
   1209 C         -11.4197   21.3223   26.1527 C.ar    1  UNL1        0.0000
   1210 C         -24.7780   22.8648   26.1333 C.2     1  UNL1        0.0000
   1211 C         -19.1698   19.3877   31.8385 C.3     1  UNL1        0.0000
   1212 C         -23.9259   12.2934   33.7567 C.2     1  UNL1        0.0000
   1213 C         -14.0399   17.0141   26.2555 C.3     1  UNL1        0.0000
   1214 C         -20.4666   25.9173   26.2662 C.2     1  UNL1        0.0000
   1215 C         -12.7175   20.7055   26.1996 C.3     1  UNL1        0.0000
   1216 C         -23.3757   23.2791   26.1578 C.2     1  UNL1        0.0000
   1217 C         -21.0716   18.6733   33.3021 C.ar    1  UNL1        0.0000
   1218 C         -19.5061   16.6131   34.3896 C.ar    1  UNL1        0.0000
   1219 C         -16.8994   24.9145   31.2965 C.2    10  UNL10       0.0000
   1220 C         -23.8402   10.2636   32.2931 C.3     1  UNL1        0.0000
   1221 C         -13.8647   14.8901   27.5084 C.ar    1  UNL1        0.0000
   1222 C         -25.0116   20.9905   38.1614 C.3    26  UNL26       0.0000
   1223 C         -10.7644   21.5971   27.3867 C.ar    1  UNL1        0.0000
   1224 C         -30.0458   15.5690   37.9999 C.3    27  UNL27       0.0000
   1225 C         -14.9310   23.4872   31.3634 C.3    10  UNL10       0.0000
   1226 C         -25.8126   11.6957   32.2242 C.3     1  UNL1        0.0000
   1227 C         -18.9636   17.4548   33.4180 C.ar    1  UNL1        0.0000
   1228 C         -21.6091   17.8288   34.2745 C.ar    1  UNL1        0.0000
   1229 C         -15.3600   14.5246   38.0143 C.3    13  UNL13       0.0000
   1230 C         -25.4752   22.6343   27.3458 C.3     1  UNL1        0.0000
   1231 C         -18.5222    7.7527   38.1635 C.3     5  UNL5        0.0000
   1232 C         -20.3600   28.1020   27.5330 C.3     1  UNL1        0.0000
   1233 N         -20.3050   27.5032   28.7712 N.3     1  UNL1        0.0000
   1234 N         -15.9390   14.3418   36.7754 N.3    13  UNL13       0.0000
   1235 N         -14.5495   18.7618   33.8986 N.pl3   1  UNL1        0.0000
   1236 N         -16.4465   10.0252   35.5455 N.pl3   1  UNL1        0.0000
   1237 O         -15.2922   19.0501   31.3315 O.3     1  UNL1        0.0000
   1238 O         -25.7159   15.8155   34.2216 O.3     1  UNL1        0.0000
   1239 O         -18.4657   11.6826   35.9434 O.3     1  UNL1        0.0000
   1240 O         -21.9185   24.1311   29.6337 O.3     1  UNL1        0.0000
   1241 O         -21.0822   22.7442   31.2197 O.3     1  UNL1        0.0000
   1242 O         -20.0176   11.9265   34.3167 O.3     1  UNL1        0.0000
   1243 O         -13.7040   18.7257   29.7539 O.3     1  UNL1        0.0000
   1244 O         -26.5269   17.2026   35.8196 O.3     1  UNL1        0.0000
   1245 O         -16.3765   18.4708   28.7549 O.3     1  UNL1        0.0000
   1246 O         -24.0227   16.3294   36.3200 O.3     1  UNL1        0.0000
   1247 O         -15.4377   20.7581   29.2049 O.3     1  UNL1        0.0000
   1248 O         -25.7749   14.6048   36.8127 O.3     1  UNL1        0.0000
   1249 O         -21.1684   11.3968   36.9074 O.3     1  UNL1        0.0000
   1250 O         -19.3999   23.2922   29.1355 O.3     1  UNL1        0.0000
   1251 O         -20.2144   13.6583   36.4432 O.3     1  UNL1        0.0000
   1252 O         -21.1062   21.5351   28.6180 O.3     1  UNL1        0.0000
   1253 O         -17.9487   19.2079   31.4843 O.3     1  UNL1        0.0000
   1254 O         -24.5835   13.3283   34.1349 O.2     1  UNL1        0.0000
   1255 O         -18.7972   10.5426   38.2094 O.3     1  UNL1        0.0000
   1256 O         -20.5497   25.2158   27.3614 O.2     1  UNL1        0.0000
   1257 O         -17.9950   13.3308   38.2043 O.3     1  UNL1        0.0000
   1258 O         -22.7856   23.3801   27.3014 O.2     1  UNL1        0.0000
   1259 O         -22.7640   11.9988   34.2145 O.2     1  UNL1        0.0000
   1260 O         -19.9116   20.3086   31.3452 O.3     1  UNL1        0.0000
   1261 O         -13.2568   20.4053   27.3476 O.3     1  UNL1        0.0000
   1262 O         -27.4112   16.4449   38.1354 O.3     1  UNL1        0.0000
   1263 O         -14.0524   17.6510   27.3770 O.3     1  UNL1        0.0000
   1264 O         -25.1430   18.2273   38.2167 O.3     1  UNL1        0.0000
   1265 O         -18.1847   20.8623   29.2560 O.3     1  UNL1        0.0000
   1266 O         -22.8866   13.8585   36.2370 O.3     1  UNL1        0.0000
   1267 O         -15.7306   19.6372   26.3232 O.3     1  UNL1        0.0000
   1268 O         -20.2982   22.7392   26.1564 O.3     1  UNL1        0.0000
   1269 H         -22.1055   19.6856   38.4748 H      28  UNL28       0.0000
   1270 H         -20.0383   18.4938   37.0234 H      28  UNL28       0.0000
   1271 C         -21.3521   18.9638   38.7661 C.2    28  UNL28       0.0000
   1272 H         -17.2996   18.3387   37.7625 H      28  UNL28       0.0000
   1273 C         -20.3364   18.3805   38.0576 C.2    28  UNL28       0.0000
   1274 H         -22.1382   19.8783   41.3578 H      28  UNL28       0.0000
   1275 N         -21.2914   18.4491   40.0500 N.pl3  28  UNL28       0.0000
   1276 C         -17.2208   17.5564   38.5275 C.3    28  UNL28       0.0000
   1277 H         -17.0152   18.0312   39.4949 H      28  UNL28       0.0000
   1278 C         -22.1937   18.8061   41.1497 C.3    28  UNL28       0.0000
   1279 N         -19.6840   17.5127   38.9171 N.pl3  28  UNL28       0.0000
   1280 H         -23.2160   18.5320   40.8821 H      28  UNL28       0.0000
   1281 H         -16.3666   16.9132   38.2752 H      28  UNL28       0.0000
   1282 C         -20.2758   17.5699   40.1245 C.3    28  UNL28       0.0000
   1283 C         -18.4879   16.7071   38.5822 C.3    28  UNL28       0.0000
   1284 H         -18.6938   16.2081   37.6274 H      28  UNL28       0.0000
   1285 H         -21.9151   18.2362   42.0367 H      28  UNL28       0.0000
   1286 H         -19.9866   17.0098   41.0058 H      28  UNL28       0.0000
   1287 H         -18.4160   15.9244   39.3462 H      28  UNL28       0.0000
   1288 TI         13.1539    2.2298   11.2464 Ti      1  UNL1        0.0000
   1289 TI         23.9844    5.1110    1.8816 Ti      1  UNL1        0.0000
   1290 TI         17.2506   -1.7064    9.4264 Ti      1  UNL1        0.0000
   1291 TI         18.7618    7.4557    3.6534 Ti      1  UNL1        0.0000
   1292 TI         17.7633    9.1340    1.7490 Ti      1  UNL1        0.0000
   1293 TI         19.1388   -1.9608   11.3798 Ti      1  UNL1        0.0000
   1294 TI         14.1031    0.4939    9.3549 Ti      1  UNL1        0.0000
   1295 TI         21.9966    5.4135    3.7291 Ti      1  UNL1        0.0000
   1296 H          19.7639    1.5332    8.6022 H       1  UNL1        0.0000
   1297 H          15.8231   -4.2223    6.4832 H       1  UNL1        0.0000
   1298 H          20.7957   10.8562    4.6619 H       1  UNL1        0.0000
   1299 H          13.6558    6.1268   11.0269 H       1  UNL1        0.0000
   1300 H          24.7932    1.2049    2.2023 H       1  UNL1        0.0000
   1301 H           9.1941    1.4731   10.8639 H       1  UNL1        0.0000
   1302 H          27.3666    7.1153    2.0822 H       1  UNL1        0.0000
   1303 H          20.1144   -5.9953   10.9939 H       1  UNL1        0.0000
   1304 H          13.7047    8.5441    2.0711 H       1  UNL1        0.0000
   1305 H          20.7371    3.0497    6.8490 H       1  UNL1        0.0000
   1306 H          16.0453    3.6814    8.4012 H       1  UNL1        0.0000
   1307 H          12.3441   -1.6940    6.3606 H       1  UNL1        0.0000
   1308 H          18.2577    7.4972   -0.1241 H       1  UNL1        0.0000
   1309 H          22.1089    4.8683    0.1817 H       1  UNL1        0.0000
   1310 H          19.6487   -2.6279    5.8687 H       1  UNL1        0.0000
   1311 H          17.0384    9.2927    7.2723 H       1  UNL1        0.0000
   1312 H          10.0305    3.8825    8.9990 H       1  UNL1        0.0000
   1313 H          26.7392    3.0267    4.1876 H       1  UNL1        0.0000
   1314 H          12.3316    2.4351    5.6652 H       1  UNL1        0.0000
   1315 H          14.6632   10.9619    4.1022 H       1  UNL1        0.0000
   1316 H          18.1555   12.2368    2.6045 H       1  UNL1        0.0000
   1317 H          24.6354   -0.8139    3.4048 H      54  UNL54       0.0000
   1318 H          20.8545    7.1358    2.3148 H       1  UNL1        0.0000
   1319 H          16.1699    0.1420   10.7200 H       1  UNL1        0.0000
   1320 H          23.3736   -0.0259    9.7694 H       1  UNL1        0.0000
   1321 H          21.8925   -0.4950   10.5168 H       1  UNL1        0.0000
   1322 H          23.9477    4.4077    8.6705 H       1  UNL1        0.0000
   1323 H          23.3780    4.7663    7.0520 H       1  UNL1        0.0000
   1324 H          22.8848   -4.9808    9.5794 H       1  UNL1        0.0000
   1325 H          21.6056   -3.8802   10.0368 H       1  UNL1        0.0000
   1326 H          17.4346    1.8743    9.3615 H       1  UNL1        0.0000
   1327 H          17.0177    5.2030    6.6470 H       1  UNL1        0.0000
   1328 H          22.0412    8.8694    3.8665 H       1  UNL1        0.0000
   1329 H           8.2774    8.8902    4.6894 H       1  UNL1        0.0000
   1330 C          24.5625    4.3697    4.7451 C.3     1  UNL1        0.0000
   1331 C          12.1934    2.4911    8.3994 C.3     1  UNL1        0.0000
   1332 C          19.8311   -2.7171    8.5017 C.3     1  UNL1        0.0000
   1333 C          16.8257    9.4262    4.6127 C.3     1  UNL1        0.0000
   1334 C          25.4585    3.7654    5.7403 C.ar    1  UNL1        0.0000
   1335 C          11.2615    3.1162    7.4223 C.ar    1  UNL1        0.0000
   1336 C          20.7713   -3.3315    7.5545 C.2     1  UNL1        0.0000
   1337 C          15.9359   10.0730    5.6125 C.ar    1  UNL1        0.0000
   1338 C          25.2097    3.8403    7.1467 C.ar    1  UNL1        0.0000
   1339 C          11.4779    2.9962    6.0343 C.ar    1  UNL1        0.0000
   1340 C          21.9008   -4.0918    8.0076 C.2     1  UNL1        0.0000
   1341 C          14.8412   10.8460    5.1676 C.ar    1  UNL1        0.0000
   1342 C          16.1904    9.9022    6.9674 C.ar    1  UNL1        0.0000
   1343 C          20.5236   -3.1994    6.1706 C.3     1  UNL1        0.0000
   1344 C          26.5922    3.0664    5.2646 C.ar    1  UNL1        0.0000
   1345 C          10.1613    3.8086    7.9210 C.ar    1  UNL1        0.0000
   1346 C          18.9344    4.2161    6.6500 C.ar    1  UNL1        0.0000
   1347 C          17.8525    2.5278    8.5977 C.ar    1  UNL1        0.0000
   1348 C          22.4800    9.5123    4.6279 C.ar    1  UNL1        0.0000
   1349 C          14.1416   -2.8736    6.5220 C.2     1  UNL1        0.0000
   1350 C          24.7742    1.2840    0.0582 C.2     1  UNL1        0.0000
   1351 C          18.3045   13.0756    0.0832 C.2     1  UNL1        0.0000
   1352 C          27.2587    7.0471   -0.0678 C.2     1  UNL1        0.0000
   1353 C          13.9003    8.5895   -0.0872 C.2     1  UNL1        0.0000
   1354 C          19.5085    5.1125    5.6180 C.3     1  UNL1        0.0000
   1355 C          14.7525   -1.9819    7.5361 C.2     1  UNL1        0.0000
   1356 C          24.6384    2.7388    0.0350 C.2     1  UNL1        0.0000
   1357 C          18.2118   11.6421    0.0457 C.2     1  UNL1        0.0000
   1358 C          25.9608    6.4303   -0.0210 C.2     1  UNL1        0.0000
   1359 C          15.3026    9.0039   -0.0628 C.2     1  UNL1        0.0000
   1360 C          17.6067    4.3981    7.0816 C.ar    1  UNL1        0.0000
   1361 C          19.1722    2.3379    8.1690 C.ar    1  UNL1        0.0000
   1362 C          21.7789   10.6392    5.0759 C.ar    1  UNL1        0.0000
   1363 C          14.8381   -4.0116    6.0726 C.3     1  UNL1        0.0000
   1364 C          24.8136    0.6149    1.2879 C.3     1  UNL1        0.0000
   1365 C          13.6668    6.7152   11.9408 C.ar    1  UNL1        0.0000
   1366 C          27.9140    7.3219    1.1661 C.3     1  UNL1        0.0000
   1367 C           8.6326    1.2938   11.7793 C.ar    1  UNL1        0.0000
   1368 C          23.7473    9.2120    5.1429 C.ar    1  UNL1        0.0000
   1369 C          12.8658   -2.5795    6.0036 C.3     1  UNL1        0.0000
   1370 C          19.7147    3.1796    7.1974 C.ar    1  UNL1        0.0000
   1371 C          17.0692    3.5536    8.0540 C.ar    1  UNL1        0.0000
   1372 C          23.3183    0.2494   11.7938 C.ar    1  UNL1        0.0000
   1373 C          13.2031    8.3591    1.1253 C.3     1  UNL1        0.0000
   1374 C          20.1561   -6.5225   11.9429 C.3     1  UNL1        0.0000
   1375 C          18.3183   13.8268    1.3125 C.3     1  UNL1        0.0000
   1376 N          18.3733   13.2279    2.5506 N.3     1  UNL1        0.0000
   1377 N          22.7393    0.0666   10.5548 N.pl3   1  UNL1        0.0000
   1378 N          24.1288    4.4866    7.6780 N.pl3   1  UNL1        0.0000
   1379 N          22.2318   -4.2500    9.3250 N.pl3   1  UNL1        0.0000
   1380 O          23.3861    4.7748    5.1109 O.3     1  UNL1        0.0000
   1381 O          12.9624    1.5403    8.0011 O.3     1  UNL1        0.0000
   1382 O          20.2126   -2.5927    9.7228 O.3     1  UNL1        0.0000
   1383 O          16.7598    9.8559    3.4131 O.3     1  UNL1        0.0000
   1384 O          17.5962    8.4690    4.9992 O.3     1  UNL1        0.0000
   1385 O          18.6607   -2.3487    8.0962 O.3     1  UNL1        0.0000
   1386 O          24.9743    4.4505    3.5334 O.3     1  UNL1        0.0000
   1387 O          12.1514    2.9274    9.5991 O.3     1  UNL1        0.0000
   1388 O          22.3018    4.1956    2.5344 O.3     1  UNL1        0.0000
   1389 O          14.6556    2.0542   10.0994 O.3     1  UNL1        0.0000
   1390 O          23.2406    6.4829    2.9843 O.3     1  UNL1        0.0000
   1391 O          12.9034    0.3296   10.5921 O.3     1  UNL1        0.0000
   1392 O          17.5099   -2.8784   10.6868 O.3     1  UNL1        0.0000
   1393 O          19.2784    9.0170    2.9149 O.3     1  UNL1        0.0000
   1394 O          18.4639   -0.6169   10.2227 O.3     1  UNL1        0.0000
   1395 O          17.5721    7.2599    2.3975 O.3     1  UNL1        0.0000
   1396 O          20.7297    4.9327    5.2637 O.3     1  UNL1        0.0000
   1397 O          14.0948   -0.9469    7.9143 O.2     1  UNL1        0.0000
   1398 O          19.8812   -3.7326   11.9889 O.2     1  UNL1        0.0000
   1399 O          18.1286   10.9406    1.1409 O.2     1  UNL1        0.0000
   1400 O          20.6833   -0.9445   11.9838 O.3     1  UNL1        0.0000
   1401 O          15.8927    9.1049    1.0808 O.2     1  UNL1        0.0000
   1402 O          15.9143   -2.2764    7.9939 O.2     1  UNL1        0.0000
   1403 O          18.7667    6.0334    5.1246 O.3     1  UNL1        0.0000
   1404 O          25.4215    6.1301    1.1270 O.2     1  UNL1        0.0000
   1405 O          11.2672    2.1697   11.9148 O.3     1  UNL1        0.0000
   1406 O          24.6259    3.3758    1.1564 O.2     1  UNL1        0.0000
   1407 O          13.5354    3.9521   11.9961 O.3     1  UNL1        0.0000
   1408 O          20.4936    6.5871    3.0354 O.3     1  UNL1        0.0000
   1409 O          15.7917   -0.4167   10.0165 O.3     1  UNL1        0.0000
   1410 O          22.9477    5.3620    0.1026 O.3     1  UNL1        0.0000
   1411 O          18.3801    8.4640   -0.0641 O.3     1  UNL1        0.0000
   1412 H          16.5728    5.4104   12.2543 H      30  UNL30       0.0000
   1413 H          18.6400    4.2185   10.8029 H      30  UNL30       0.0000
   1414 C          17.3262    4.6886   12.5456 C.2    30  UNL30       0.0000
   1415 H          21.3787    4.0635   11.5420 H      30  UNL30       0.0000
   1416 C          18.3419    4.1053   11.8370 C.2    30  UNL30       0.0000
   1417 H          16.5402    5.6031   15.1373 H      30  UNL30       0.0000
   1418 N          17.3869    4.1739   13.8294 N.pl3  30  UNL30       0.0000
   1419 C          21.4575    3.2812   12.3070 C.3    30  UNL30       0.0000
   1420 H          21.6631    3.7560   13.2744 H      30  UNL30       0.0000
   1421 C          16.4846    4.5309   14.9291 C.3    30  UNL30       0.0000
   1422 N          18.9943    3.2375   12.6966 N.pl3  30  UNL30       0.0000
   1423 H          15.4624    4.2568   14.6616 H      30  UNL30       0.0000
   1424 H          22.3118    2.6379   12.0546 H      30  UNL30       0.0000
   1425 C          18.4025    3.2947   13.9040 C.3    30  UNL30       0.0000
   1426 C          20.1904    2.4318   12.3617 C.3    30  UNL30       0.0000
   1427 H          19.9845    1.9329   11.4068 H      30  UNL30       0.0000
   1428 H          16.7633    3.9610   15.8161 H      30  UNL30       0.0000
   1429 H          18.6917    2.7346   14.7852 H      30  UNL30       0.0000
   1430 H          20.2624    1.6491   13.1257 H      30  UNL30       0.0000
   1431 TI          8.8414   -5.0094   24.3567 Ti      1  UNL1        0.0000
   1432 TI         19.6719   -2.1282   14.9919 Ti      1  UNL1        0.0000
   1433 TI         12.9381   -8.9456   22.5367 Ti      1  UNL1        0.0000
   1434 TI         14.4493    0.2165   16.7637 Ti      1  UNL1        0.0000
   1435 TI         13.4507    1.8948   14.8593 Ti      1  UNL1        0.0000
   1436 TI         14.8263   -9.2000   24.4901 Ti      1  UNL1        0.0000
   1437 TI          9.7906   -6.7453   22.4652 Ti      1  UNL1        0.0000
   1438 TI         17.6841   -1.8257   16.8393 Ti      1  UNL1        0.0000
   1439 H          15.4514   -5.7060   21.7125 H       1  UNL1        0.0000
   1440 H          11.5106  -11.4615   19.5935 H       1  UNL1        0.0000
   1441 H          16.4832    3.6170   17.7721 H       1  UNL1        0.0000
   1442 H           9.3433   -1.1124   24.1372 H       1  UNL1        0.0000
   1443 H          20.4807   -6.0343   15.3125 H       1  UNL1        0.0000
   1444 H           4.8815   -5.7661   23.9742 H       1  UNL1        0.0000
   1445 H          23.0540   -0.1239   15.1925 H       1  UNL1        0.0000
   1446 H          15.8019  -13.2345   24.1041 H       1  UNL1        0.0000
   1447 H           9.3922    1.3049   15.1813 H       1  UNL1        0.0000
   1448 H          16.4245   -4.1895   19.9593 H       1  UNL1        0.0000
   1449 H          11.7327   -3.5578   21.5115 H       1  UNL1        0.0000
   1450 H           8.0315   -8.9332   19.4709 H       1  UNL1        0.0000
   1451 H          13.9452    0.2580   12.9862 H       1  UNL1        0.0000
   1452 H          17.7964   -2.3709   13.2919 H       1  UNL1        0.0000
   1453 H          15.3362   -9.8671   18.9790 H       1  UNL1        0.0000
   1454 H          12.7259    2.0535   20.3826 H       1  UNL1        0.0000
   1455 H           5.7180   -3.3567   22.1093 H       1  UNL1        0.0000
   1456 H          22.4267   -4.2126   17.2979 H       1  UNL1        0.0000
   1457 H           8.0191   -4.8041   18.7754 H       1  UNL1        0.0000
   1458 H          10.3506    3.7227   17.2125 H       1  UNL1        0.0000
   1459 H          13.8430    4.9976   15.7147 H       1  UNL1        0.0000
   1460 H          20.3228   -8.0531   16.5150 H      54  UNL54       0.0000
   1461 H          16.5419   -0.1034   15.4250 H       1  UNL1        0.0000
   1462 H          11.8574   -7.0972   23.8303 H       1  UNL1        0.0000
   1463 H          19.0611   -7.2651   22.8797 H       1  UNL1        0.0000
   1464 H          17.5799   -7.7342   23.6271 H       1  UNL1        0.0000
   1465 H          19.6352   -2.8315   21.7808 H       1  UNL1        0.0000
   1466 H          19.0655   -2.4729   20.1623 H       1  UNL1        0.0000
   1467 H          18.5722  -12.2200   22.6897 H       1  UNL1        0.0000
   1468 H          17.2931  -11.1194   23.1471 H       1  UNL1        0.0000
   1469 H          13.1221   -5.3649   22.4717 H       1  UNL1        0.0000
   1470 H          12.7052   -2.0362   19.7572 H       1  UNL1        0.0000
   1471 H          17.7286    1.6302   16.9768 H       1  UNL1        0.0000
   1472 H           3.9649    1.6510   17.7996 H       1  UNL1        0.0000
   1473 C          20.2499   -2.8695   17.8554 C.3     1  UNL1        0.0000
   1474 C           7.8809   -4.7481   21.5096 C.3     1  UNL1        0.0000
   1475 C          15.5186   -9.9563   21.6120 C.3     1  UNL1        0.0000
   1476 C          12.5132    2.1870   17.7230 C.3     1  UNL1        0.0000
   1477 C          21.1460   -3.4738   18.8506 C.ar    1  UNL1        0.0000
   1478 C           6.9490   -4.1230   20.5326 C.ar    1  UNL1        0.0000
   1479 C          16.4588  -10.5707   20.6648 C.2     1  UNL1        0.0000
   1480 C          11.6234    2.8338   18.7228 C.ar    1  UNL1        0.0000
   1481 C          20.8972   -3.3989   20.2570 C.ar    1  UNL1        0.0000
   1482 C           7.1654   -4.2430   19.1446 C.ar    1  UNL1        0.0000
   1483 C          17.5883  -11.3310   21.1178 C.2     1  UNL1        0.0000
   1484 C          10.5286    3.6068   18.2779 C.ar    1  UNL1        0.0000
   1485 C          11.8779    2.6630   20.0777 C.ar    1  UNL1        0.0000
   1486 C          16.2111  -10.4386   19.2809 C.3     1  UNL1        0.0000
   1487 C          22.2796   -4.1728   18.3749 C.ar    1  UNL1        0.0000
   1488 C           5.8488   -3.4306   21.0313 C.ar    1  UNL1        0.0000
   1489 C          14.6218   -3.0231   19.7603 C.ar    1  UNL1        0.0000
   1490 C          13.5399   -4.7114   21.7080 C.ar    1  UNL1        0.0000
   1491 C          18.1674    2.2731   17.7381 C.ar    1  UNL1        0.0000
   1492 C           9.8291  -10.1128   19.6322 C.2     1  UNL1        0.0000
   1493 C          20.4617   -5.9552   13.1685 C.2     1  UNL1        0.0000
   1494 C          13.9920    5.8364   13.1935 C.ar    1  UNL1        0.0000
   1495 C          22.9461   -0.1921   13.0424 C.ar    1  UNL1        0.0000
   1496 C           9.5878    1.3503   13.0231 C.ar    1  UNL1        0.0000
   1497 C          15.1960   -2.1267   18.7283 C.3     1  UNL1        0.0000
   1498 C          10.4399   -9.2211   20.6464 C.2     1  UNL1        0.0000
   1499 C          20.3258   -4.5004   13.1453 C.2     1  UNL1        0.0000
   1500 C          13.8992    4.4029   13.1560 C.3     1  UNL1        0.0000
   1501 C          21.6483   -0.8089   13.0893 C.3     1  UNL1        0.0000
   1502 C          10.9901    1.7647   13.0475 C.3     1  UNL1        0.0000
   1503 C          13.2942   -2.8411   20.1919 C.ar    1  UNL1        0.0000
   1504 C          14.8597   -4.9013   21.2793 C.ar    1  UNL1        0.0000
   1505 C          17.4664    3.4000   18.1862 C.ar    1  UNL1        0.0000
   1506 C          10.5256  -11.2508   19.1829 C.3     1  UNL1        0.0000
   1507 C          20.5011   -6.6243   14.3981 C.3     1  UNL1        0.0000
   1508 C           9.3542   -0.5240   25.0511 C.ar    1  UNL1        0.0000
   1509 C          23.6014    0.0827   14.2764 C.ar    1  UNL1        0.0000
   1510 C           4.3200   -5.9454   24.8896 C.ar    1  UNL1        0.0000
   1511 C          19.4348    1.9728   18.2532 C.ar    1  UNL1        0.0000
   1512 C           8.5532   -9.8187   19.1139 C.3     1  UNL1        0.0000
   1513 C          15.4022   -4.0596   20.3077 C.ar    1  UNL1        0.0000
   1514 C          12.7567   -3.6856   21.1642 C.ar    1  UNL1        0.0000
   1515 C          19.0058   -6.9898   24.9041 C.ar    1  UNL1        0.0000
   1516 C           8.8906    1.1199   14.2355 C.ar    1  UNL1        0.0000
   1517 C          15.8436  -13.7617   25.0532 C.3     1  UNL1        0.0000
   1518 C          14.0058    6.5876   14.4227 C.ar    1  UNL1        0.0000
   1519 N          14.0608    5.9887   15.6609 N.pl3   1  UNL1        0.0000
   1520 N          18.4268   -7.1726   23.6651 N.pl3   1  UNL1        0.0000
   1521 N          19.8163   -2.7526   20.7883 N.pl3   1  UNL1        0.0000
   1522 N          17.9193  -11.4892   22.4352 N.pl3   1  UNL1        0.0000
   1523 O          19.0736   -2.4644   18.2212 O.3     1  UNL1        0.0000
   1524 O           8.6499   -5.6989   21.1114 O.3     1  UNL1        0.0000
   1525 O          15.9001   -9.8319   22.8331 O.3     1  UNL1        0.0000
   1526 O          12.4473    2.6167   16.5234 O.3     1  UNL1        0.0000
   1527 O          13.2836    1.2298   18.1095 O.3     1  UNL1        0.0000
   1528 O          14.3482   -9.5879   21.2065 O.3     1  UNL1        0.0000
   1529 O          20.6618   -2.7887   16.6436 O.3     1  UNL1        0.0000
   1530 O           7.8389   -4.3118   22.7094 O.3     1  UNL1        0.0000
   1531 O          17.9893   -3.0436   15.6446 O.3     1  UNL1        0.0000
   1532 O          10.3431   -5.1850   23.2097 O.3     1  UNL1        0.0000
   1533 O          18.9281   -0.7563   16.0946 O.3     1  UNL1        0.0000
   1534 O           8.5909   -6.9097   23.7024 O.3     1  UNL1        0.0000
   1535 O          13.1974  -10.1176   23.7971 O.3     1  UNL1        0.0000
   1536 O          14.9658    1.7778   16.0252 O.3     1  UNL1        0.0000
   1537 O          14.1514   -7.8561   23.3329 O.3     1  UNL1        0.0000
   1538 O          13.2596    0.0207   15.5078 O.3     1  UNL1        0.0000
   1539 O          16.4171   -2.3065   18.3740 O.3     1  UNL1        0.0000
   1540 O           9.7823   -8.1861   21.0246 O.2     1  UNL1        0.0000
   1541 O          15.5686  -10.9718   25.0992 O.2     1  UNL1        0.0000
   1542 O          13.8161    3.7014   14.2512 O.3     1  UNL1        0.0000
   1543 O          16.3708   -8.1837   25.0940 O.3     1  UNL1        0.0000
   1544 O          11.5802    1.8657   14.1911 O.3     1  UNL1        0.0000
   1545 O          11.6017   -9.5156   21.1042 O.2     1  UNL1        0.0000
   1546 O          14.4542   -1.2058   18.2349 O.3     1  UNL1        0.0000
   1547 O          21.1090   -1.1091   14.2373 O.3     1  UNL1        0.0000
   1548 O           6.9546   -5.0695   25.0251 O.3     1  UNL1        0.0000
   1549 O          20.3134   -3.8634   14.2667 O.2     1  UNL1        0.0000
   1550 O           9.2228   -3.2872   25.1064 O.3     1  UNL1        0.0000
   1551 O          16.1811   -0.6521   16.1457 O.3     1  UNL1        0.0000
   1552 O          11.4792   -7.6559   23.1267 O.3     1  UNL1        0.0000
   1553 O          18.6352   -1.8772   13.2129 O.3     1  UNL1        0.0000
   1554 O          14.0675    1.2248   13.0462 O.3     1  UNL1        0.0000
   1555 H          12.2603   -1.8288   25.3645 H      32  UNL32       0.0000
   1556 H          14.3275   -3.0207   23.9132 H      32  UNL32       0.0000
   1557 C          13.0136   -2.5506   25.6559 C.2    32  UNL32       0.0000
   1558 H          17.0662   -3.1757   24.6522 H      32  UNL32       0.0000
   1559 C          14.0294   -3.1339   24.9473 C.2    32  UNL32       0.0000
   1560 H          12.2276   -1.6361   28.2476 H      32  UNL32       0.0000
   1561 N          13.0744   -3.0653   26.9397 N.pl3  32  UNL32       0.0000
   1562 C          17.1449   -3.9580   25.4172 C.3    32  UNL32       0.0000
   1563 H          17.3506   -3.4832   26.3846 H      32  UNL32       0.0000
   1564 C          12.1721   -2.7083   28.0394 C.3    32  UNL32       0.0000
   1565 N          14.6818   -4.0017   25.8068 N.pl3  32  UNL32       0.0000
   1566 H          11.1498   -2.9825   27.7719 H      32  UNL32       0.0000
   1567 H          17.9992   -4.6013   25.1649 H      32  UNL32       0.0000
   1568 C          14.0900   -3.9445   27.0142 C.3    32  UNL32       0.0000
   1569 C          15.8779   -4.8074   25.4720 C.3    32  UNL32       0.0000
   1570 H          15.6720   -5.3063   24.5171 H      32  UNL32       0.0000
   1571 H          12.4507   -3.2782   28.9264 H      32  UNL32       0.0000
   1572 H          14.3791   -4.5046   27.8955 H      32  UNL32       0.0000
   1573 H          15.9498   -5.5901   26.2360 H      32  UNL32       0.0000
   1574 TI          4.5289  -12.2486   37.4669 Ti      1  UNL1        0.0000
   1575 TI         15.3594   -9.3674   28.1021 Ti      1  UNL1        0.0000
   1576 TI          8.6256  -16.1848   35.6470 Ti      1  UNL1        0.0000
   1577 TI         10.1368   -7.0227   29.8739 Ti      1  UNL1        0.0000
   1578 TI          9.1382   -5.3444   27.9695 Ti      1  UNL1        0.0000
   1579 TI         10.5138  -16.4392   37.6003 Ti      1  UNL1        0.0000
   1580 TI          5.4781  -13.9845   35.5755 Ti      1  UNL1        0.0000
   1581 TI         13.3715   -9.0649   29.9496 Ti      1  UNL1        0.0000
   1582 H          11.1388  -12.9452   34.8228 H       1  UNL1        0.0000
   1583 H           7.1981  -18.7007   32.7037 H       1  UNL1        0.0000
   1584 H          12.1706   -3.6222   30.8824 H       1  UNL1        0.0000
   1585 H           5.0308   -8.3516   37.2475 H      14  UNL14       0.0000
   1586 H          16.1681  -13.2735   28.4228 H       1  UNL1        0.0000
   1587 H           0.5690  -13.0053   37.0845 H       3  UNL3        0.0000
   1588 H          18.7415   -7.3631   28.3028 H       1  UNL1        0.0000
   1589 H          11.4894  -20.4737   37.2144 H      16  UNL16       0.0000
   1590 H           5.0797   -5.9343   28.2916 H       1  UNL1        0.0000
   1591 H          12.1120  -11.4287   33.0695 H       1  UNL1        0.0000
   1592 H           7.4202  -10.7970   34.6218 H       1  UNL1        0.0000
   1593 H           3.7190  -16.1724   32.5811 H       1  UNL1        0.0000
   1594 H           9.6327   -6.9812   26.0965 H       1  UNL1        0.0000
   1595 H          13.4838   -9.6101   26.4022 H       1  UNL1        0.0000
   1596 H          11.0237  -17.1063   32.0892 H       1  UNL1        0.0000
   1597 H           8.4133   -5.1857   33.4929 H       1  UNL1        0.0000
   1598 H           1.4055  -10.5959   35.2196 H       1  UNL1        0.0000
   1599 H          18.1141  -11.4518   30.4081 H       1  UNL1        0.0000
   1600 H           3.7066  -12.0433   31.8857 H       1  UNL1        0.0000
   1601 H           6.0381   -3.5165   30.3228 H       1  UNL1        0.0000
   1602 H           9.5304   -2.2416   28.8250 H       1  UNL1        0.0000
   1603 H          16.0103  -15.2923   29.6253 H      54  UNL54       0.0000
   1604 H          12.2294   -7.3426   28.5353 H       1  UNL1        0.0000
   1605 H           7.5449  -14.3364   36.9406 H       1  UNL1        0.0000
   1606 H          14.7485  -14.5043   35.9900 H      15  UNL15       0.0000
   1607 H          13.2674  -14.9734   36.7373 H      15  UNL15       0.0000
   1608 H          15.3226  -10.0707   34.8911 H       1  UNL1        0.0000
   1609 H          14.7529   -9.7121   33.2726 H       1  UNL1        0.0000
   1610 H          14.2597  -19.4592   35.8000 H       1  UNL1        0.0000
   1611 H          12.9806  -18.3586   36.2574 H       1  UNL1        0.0000
   1612 H           8.8095  -12.6041   35.5820 H       1  UNL1        0.0000
   1613 H           8.3927   -9.2754   32.8675 H       1  UNL1        0.0000
   1614 H          13.4161   -5.6090   30.0871 H       1  UNL1        0.0000
   1615 H          -0.3476   -5.5882   30.9099 H       1  UNL1        0.0000
   1616 C          15.9374  -10.1087   30.9657 C.3     1  UNL1        0.0000
   1617 C           3.5683  -11.9873   34.6199 C.3     1  UNL1        0.0000
   1618 C          11.2061  -17.1955   34.7222 C.3     1  UNL1        0.0000
   1619 C           8.2007   -5.0522   30.8333 C.3     1  UNL1        0.0000
   1620 C          16.8334  -10.7130   31.9609 C.ar    1  UNL1        0.0000
   1621 C           2.6364  -11.3622   33.6429 C.ar    1  UNL1        0.0000
   1622 C          12.1463  -17.8099   33.7751 C.2     1  UNL1        0.0000
   1623 C           7.3108   -4.4054   31.8331 C.ar    1  UNL1        0.0000
   1624 C          16.5847  -10.6381   33.3673 C.ar    1  UNL1        0.0000
   1625 C           2.8528  -11.4822   32.2548 C.ar    1  UNL1        0.0000
   1626 C          13.2757  -18.5702   34.2281 C.2     1  UNL1        0.0000
   1627 C           6.2161   -3.6324   31.3882 C.ar    1  UNL1        0.0000
   1628 C           7.5653   -4.5762   33.1880 C.ar    1  UNL1        0.0000
   1629 C          11.8986  -17.6778   32.3911 C.3     1  UNL1        0.0000
   1630 C          17.9671  -11.4120   31.4851 C.ar    1  UNL1        0.0000
   1631 C           1.5363  -10.6698   34.1415 C.ar    1  UNL1        0.0000
   1632 C          10.3093  -10.2623   32.8706 C.ar    1  UNL1        0.0000
   1633 C           9.2274  -11.9506   34.8182 C.ar    1  UNL1        0.0000
   1634 C          13.8549   -4.9661   30.8484 C.ar    1  UNL1        0.0000
   1635 C           5.5166  -17.3520   32.7425 C.2     1  UNL1        0.0000
   1636 C          16.1492  -13.1944   26.2787 C.2     1  UNL1        0.0000
   1637 C           9.6794   -1.4028   26.3037 C.ar    1  UNL1        0.0000
   1638 C          18.6336   -7.4313   26.1527 C.ar    1  UNL1        0.0000
   1639 C           5.2753   -5.8889   26.1333 C.ar    1  UNL1        0.0000
   1640 C          10.8835   -9.3659   31.8385 C.3     1  UNL1        0.0000
   1641 C           6.1274  -16.4603   33.7567 C.2     1  UNL1        0.0000
   1642 C          16.0133  -11.7396   26.2555 C.2     1  UNL1        0.0000
   1643 C           9.5867   -2.8363   26.2662 C.3     1  UNL1        0.0000
   1644 C          17.3358   -8.0481   26.1996 C.3     1  UNL1        0.0000
   1645 C           6.6776   -5.4745   26.1578 C.3     1  UNL1        0.0000
   1646 C           8.9816  -10.0803   33.3021 C.ar    1  UNL1        0.0000
   1647 C          10.5471  -12.1405   34.3896 C.ar    1  UNL1        0.0000
   1648 C          13.1538   -3.8392   31.2965 C.ar    1  UNL1        0.0000
   1649 C           6.2131  -18.4900   32.2931 C.3     1  UNL1        0.0000
   1650 C          16.1885  -13.8635   27.5084 C.3     1  UNL1        0.0000
   1651 C           5.0417   -7.7632   38.1614 C.3    14  UNL14       0.0000
   1652 C          19.2889   -7.1565   27.3867 C.ar    1  UNL1        0.0000
   1653 C           0.0075  -13.1846   37.9999 C.3     3  UNL3        0.0000
   1654 C          15.1223   -5.2664   31.3634 C.ar    1  UNL1        0.0000
   1655 C           4.2407  -17.0579   32.2242 C.3     1  UNL1        0.0000
   1656 C          11.0896  -11.2988   33.4180 C.ar    1  UNL1        0.0000
   1657 C           8.4442  -10.9248   34.2745 C.ar    1  UNL1        0.0000
   1658 C          14.6933  -14.2290   38.0143 C.3    15  UNL15       0.0000
   1659 C           4.5781   -6.1193   27.3458 C.ar    1  UNL1        0.0000
   1660 C          11.5310  -21.0009   38.1635 C.3    34  UNL34       0.0000
   1661 C           9.6932   -0.6516   27.5330 C.ar    1  UNL1        0.0000
   1662 N           9.7483   -1.2505   28.7712 N.pl3   1  UNL1        0.0000
   1663 N          14.1142  -14.4118   36.7754 N.3    15  UNL15       0.0000
   1664 N          15.5038   -9.9918   33.8986 N.pl3   1  UNL1        0.0000
   1665 N          13.6067  -18.7284   35.5455 N.pl3   1  UNL1        0.0000
   1666 O          14.7611   -9.7036   31.3315 O.3     1  UNL1        0.0000
   1667 O           4.3373  -12.9381   34.2216 O.3     1  UNL1        0.0000
   1668 O          11.5875  -17.0711   35.9434 O.3     1  UNL1        0.0000
   1669 O           8.1348   -4.6225   29.6337 O.3     1  UNL1        0.0000
   1670 O           8.9711   -6.0094   31.2197 O.3     1  UNL1        0.0000
   1671 O          10.0357  -16.8271   34.3167 O.3     1  UNL1        0.0000
   1672 O          16.3493  -10.0279   29.7539 O.3     1  UNL1        0.0000
   1673 O           3.5263  -11.5510   35.8196 O.3     1  UNL1        0.0000
   1674 O          13.6768  -10.2828   28.7549 O.3     1  UNL1        0.0000
   1675 O           6.0306  -12.4242   36.3200 O.3     1  UNL1        0.0000
   1676 O          14.6156   -7.9955   29.2049 O.3     1  UNL1        0.0000
   1677 O           4.2784  -14.1489   36.8127 O.3     1  UNL1        0.0000
   1678 O           8.8849  -17.3568   36.9074 O.3     1  UNL1        0.0000
   1679 O          10.6533   -5.4614   29.1355 O.3     1  UNL1        0.0000
   1680 O           9.8388  -15.0953   36.4432 O.3     1  UNL1        0.0000
   1681 O           8.9471   -7.2185   28.6180 O.3     1  UNL1        0.0000
   1682 O          12.1046   -9.5458   31.4843 O.3     1  UNL1        0.0000
   1683 O           5.4697  -15.4253   34.1349 O.2     1  UNL1        0.0000
   1684 O          11.2561  -18.2110   38.2094 O.3     1  UNL1        0.0000
   1685 O           9.5036   -3.5378   27.3614 O.3     1  UNL1        0.0000
   1686 O          12.0582  -15.4229   38.2043 O.3     1  UNL1        0.0000
   1687 O           7.2676   -5.3735   27.3014 O.3     1  UNL1        0.0000
   1688 O           7.2892  -16.7548   34.2145 O.2     1  UNL1        0.0000
   1689 O          10.1417   -8.4450   31.3452 O.3     1  UNL1        0.0000
   1690 O          16.7964   -8.3483   27.3476 O.3     1  UNL1        0.0000
   1691 O           2.6421  -12.3087   38.1354 O.3     1  UNL1        0.0000
   1692 O          16.0009  -11.1026   27.3770 O.2     1  UNL1        0.0000
   1693 O           4.9103  -10.5264   38.2167 O.3     1  UNL1        0.0000
   1694 O          11.8686   -7.8913   29.2560 O.3     1  UNL1        0.0000
   1695 O           7.1666  -14.8951   36.2370 O.3     1  UNL1        0.0000
   1696 O          14.3227   -9.1165   26.3232 O.3     1  UNL1        0.0000
   1697 O           9.7550   -6.0144   26.1564 O.3     1  UNL1        0.0000
   1698 H           7.9477   -9.0680   38.4748 H      35  UNL35       0.0000
   1699 H          10.0150  -10.2599   37.0234 H      35  UNL35       0.0000
   1700 C           8.7011   -9.7898   38.7661 C.2    35  UNL35       0.0000
   1701 H          12.7536  -10.4149   37.7625 H      35  UNL35       0.0000
   1702 C           9.7168  -10.3731   38.0576 C.2    35  UNL35       0.0000
   1703 H           7.9151   -8.8753   41.3578 H      35  UNL35       0.0000
   1704 N           8.7619  -10.3045   40.0500 N.pl3  35  UNL35       0.0000
   1705 C          12.8324  -11.1972   38.5275 C.3    35  UNL35       0.0000
   1706 H          13.0381  -10.7224   39.4949 H      35  UNL35       0.0000
   1707 C           7.8595   -9.9475   41.1497 C.3    35  UNL35       0.0000
   1708 N          10.3693  -11.2409   38.9171 N.pl3  35  UNL35       0.0000
   1709 H           6.8373  -10.2217   40.8821 H      35  UNL35       0.0000
   1710 H          13.6867  -11.8405   38.2752 H      35  UNL35       0.0000
   1711 C           9.7774  -11.1837   40.1245 C.3    35  UNL35       0.0000
   1712 C          11.5654  -12.0466   38.5822 C.3    35  UNL35       0.0000
   1713 H          11.3594  -12.5455   37.6274 H      35  UNL35       0.0000
   1714 H           8.1382  -10.5174   42.0367 H      35  UNL35       0.0000
   1715 H          10.0666  -11.7438   41.0058 H      35  UNL35       0.0000
   1716 H          11.6373  -12.8293   39.3462 H      35  UNL35       0.0000
   1717 TI          6.1320   16.6066   11.2464 Ti      1  UNL1        0.0000
   1718 TI         16.9625   19.4878    1.8816 Ti      1  UNL1        0.0000
   1719 TI         10.2287   12.6704    9.4264 Ti      1  UNL1        0.0000
   1720 TI         11.7399   21.8325    3.6534 Ti      1  UNL1        0.0000
   1721 TI         10.7413   23.5108    1.7490 Ti      1  UNL1        0.0000
   1722 TI         12.1169   12.4160   11.3798 Ti      1  UNL1        0.0000
   1723 TI          7.0812   14.8707    9.3549 Ti      1  UNL1        0.0000
   1724 TI         14.9747   19.7903    3.7291 Ti      1  UNL1        0.0000
   1725 H          12.7419   15.9100    8.6022 H       1  UNL1        0.0000
   1726 H           8.8012   10.1545    6.4832 H       1  UNL1        0.0000
   1727 H          13.7738   25.2330    4.6619 H       1  UNL1        0.0000
   1728 H           6.6339   20.5037   11.0269 H       1  UNL1        0.0000
   1729 H          17.7713   15.5817    2.2023 H       1  UNL1        0.0000
   1730 H           2.1721   15.8499   10.8639 H       1  UNL1        0.0000
   1731 H          20.3446   21.4921    2.0822 H       1  UNL1        0.0000
   1732 H          13.0925    8.3815   10.9939 H       1  UNL1        0.0000
   1733 H           6.6828   22.9209    2.0711 H       1  UNL1        0.0000
   1734 H          13.7151   17.4265    6.8490 H       1  UNL1        0.0000
   1735 H           9.0233   18.0582    8.4012 H       1  UNL1        0.0000
   1736 H           5.3221   12.6828    6.3606 H       1  UNL1        0.0000
   1737 H          11.2358   21.8740   -0.1241 H       1  UNL1        0.0000
   1738 H          15.0870   19.2451    0.1817 H       1  UNL1        0.0000
   1739 H          12.6268   11.7489    5.8687 H       1  UNL1        0.0000
   1740 H          10.0165   23.6695    7.2723 H       1  UNL1        0.0000
   1741 H           3.0086   18.2593    8.9990 H       1  UNL1        0.0000
   1742 H          19.7172   17.4035    4.1876 H       1  UNL1        0.0000
   1743 H           5.3097   16.8119    5.6652 H       1  UNL1        0.0000
   1744 H           7.6412   25.3387    4.1022 H       1  UNL1        0.0000
   1745 H          11.1336   26.6137    2.6045 H       1  UNL1        0.0000
   1746 H          17.6134   13.5629    3.4048 H       1  UNL1        0.0000
   1747 H          13.8325   21.5126    2.3148 H       1  UNL1        0.0000
   1748 H           9.1480   14.5188   10.7200 H       1  UNL1        0.0000
   1749 H          16.3516   14.3509    9.7694 H       1  UNL1        0.0000
   1750 H          14.8705   13.8818   10.5168 H       1  UNL1        0.0000
   1751 H          16.9258   18.7845    8.6705 H       1  UNL1        0.0000
   1752 H          16.3561   19.1431    7.0520 H       1  UNL1        0.0000
   1753 H          15.8628    9.3961    9.5794 H       1  UNL1        0.0000
   1754 H          14.5837   10.4966   10.0368 H       1  UNL1        0.0000
   1755 H          10.4127   16.2511    9.3615 H       1  UNL1        0.0000
   1756 H           9.9958   19.5799    6.6470 H       1  UNL1        0.0000
   1757 H          15.0192   23.2462    3.8665 H       1  UNL1        0.0000
   1758 H           1.2555   23.2670    4.6894 H       1  UNL1        0.0000
   1759 C          17.5405   18.7466    4.7451 C.3     1  UNL1        0.0000
   1760 C           5.1715   16.8680    8.3994 C.3     1  UNL1        0.0000
   1761 C          12.8092   11.6597    8.5017 C.3     1  UNL1        0.0000
   1762 C           9.8038   23.8030    4.6127 C.3     1  UNL1        0.0000
   1763 C          18.4366   18.1422    5.7403 C.ar    1  UNL1        0.0000
   1764 C           4.2396   17.4930    7.4223 C.ar    1  UNL1        0.0000
   1765 C          13.7494   11.0453    7.5545 C.ar    1  UNL1        0.0000
   1766 C           8.9140   24.4498    5.6125 C.ar    1  UNL1        0.0000
   1767 C          18.1878   18.2171    7.1467 C.ar    1  UNL1        0.0000
   1768 C           4.4560   17.3730    6.0343 C.ar    1  UNL1        0.0000
   1769 C          14.8789   10.2850    8.0076 C.ar    1  UNL1        0.0000
   1770 C           7.8192   25.2228    5.1676 C.ar    1  UNL1        0.0000
   1771 C           9.1685   24.2791    6.9674 C.ar    1  UNL1        0.0000
   1772 C          13.5017   11.1775    6.1706 C.ar    1  UNL1        0.0000
   1773 C          19.5702   17.4433    5.2646 C.ar    1  UNL1        0.0000
   1774 C           3.1394   18.1854    7.9210 C.ar    1  UNL1        0.0000
   1775 C          11.9124   18.5929    6.6500 C.ar    1  UNL1        0.0000
   1776 C          10.8305   16.9046    8.5977 C.ar    1  UNL1        0.0000
   1777 C          15.4580   23.8891    4.6279 C.ar    1  UNL1        0.0000
   1778 C           7.1197   11.5032    6.5220 C.ar    1  UNL1        0.0000
   1779 C          17.7523   15.6608    0.0582 C.2     1  UNL1        0.0000
   1780 C          11.2826   27.4524    0.0832 C.2     1  UNL1        0.0000
   1781 C          20.2367   21.4239   -0.0678 C.2     1  UNL1        0.0000
   1782 C           6.8784   22.9664   -0.0872 C.2     1  UNL1        0.0000
   1783 C          12.4866   19.4893    5.6180 C.3     1  UNL1        0.0000
   1784 C           7.7305   12.3950    7.5361 C.3     1  UNL1        0.0000
   1785 C          17.6164   17.1157    0.0350 C.2     1  UNL1        0.0000
   1786 C          11.1898   26.0189    0.0457 C.2     1  UNL1        0.0000
   1787 C          18.9389   20.8071   -0.0210 C.2     1  UNL1        0.0000
   1788 C           8.2807   23.3807   -0.0628 C.2     1  UNL1        0.0000
   1789 C          10.5847   18.7749    7.0816 C.ar    1  UNL1        0.0000
   1790 C          12.1503   16.7147    8.1690 C.ar    1  UNL1        0.0000
   1791 C          14.7570   25.0160    5.0759 C.ar    1  UNL1        0.0000
   1792 C           7.8162   10.3652    6.0726 C.ar    1  UNL1        0.0000
   1793 C          17.7917   14.9917    1.2879 C.3     1  UNL1        0.0000
   1794 C           6.6448   21.0921   11.9408 C.ar    1  UNL1        0.0000
   1795 C          20.8920   21.6987    1.1661 C.3     1  UNL1        0.0000
   1796 C           1.6106   15.6706   11.7793 C.ar    1  UNL1        0.0000
   1797 C          16.7254   23.5888    5.1429 C.ar    1  UNL1        0.0000
   1798 C           5.8438   11.7973    6.0036 C.ar    1  UNL1        0.0000
   1799 C          12.6928   17.5564    7.1974 C.ar    1  UNL1        0.0000
   1800 C          10.0473   17.9304    8.0540 C.ar    1  UNL1        0.0000
   1801 C          16.2964   14.6262   11.7938 C.ar    1  UNL1        0.0000
   1802 C           6.1812   22.7359    1.1253 C.3     1  UNL1        0.0000
   1803 C          13.1342    7.8543   11.9429 C.ar    1  UNL1        0.0000
   1804 C          11.2963   28.2036    1.3125 C.3     1  UNL1        0.0000
   1805 N          11.3514   27.6047    2.5506 N.3     1  UNL1        0.0000
   1806 N          15.7174   14.4434   10.5548 N.pl3   1  UNL1        0.0000
   1807 N          17.1069   18.8634    7.6780 N.pl3   1  UNL1        0.0000
   1808 N          15.2099   10.1268    9.3250 N.pl3   1  UNL1        0.0000
   1809 O          16.3642   19.1516    5.1109 O.3     1  UNL1        0.0000
   1810 O           5.9405   15.9171    8.0011 O.3     1  UNL1        0.0000
   1811 O          13.1907   11.7842    9.7228 O.3     1  UNL1        0.0000
   1812 O           9.7379   24.2327    3.4131 O.3     1  UNL1        0.0000
   1813 O          10.5742   22.8458    4.9992 O.3     1  UNL1        0.0000
   1814 O          11.6388   12.0281    8.0962 O.3     1  UNL1        0.0000
   1815 O          17.9524   18.8273    3.5334 O.3     1  UNL1        0.0000
   1816 O           5.1295   17.3042    9.5991 O.3     1  UNL1        0.0000
   1817 O          15.2799   18.5724    2.5344 O.3     1  UNL1        0.0000
   1818 O           7.6337   16.4310   10.0994 O.3     1  UNL1        0.0000
   1819 O          16.2187   20.8597    2.9843 O.3     1  UNL1        0.0000
   1820 O           5.8815   14.7064   10.5921 O.3     1  UNL1        0.0000
   1821 O          10.4880   11.4984   10.6868 O.3     1  UNL1        0.0000
   1822 O          12.2564   23.3938    2.9149 O.3     1  UNL1        0.0000
   1823 O          11.4420   13.7599   10.2227 O.3     1  UNL1        0.0000
   1824 O          10.5502   21.6367    2.3975 O.3     1  UNL1        0.0000
   1825 O          13.7077   19.3095    5.2637 O.3     1  UNL1        0.0000
   1826 O           7.0729   13.4299    7.9143 O.3     1  UNL1        0.0000
   1827 O          12.8592   10.6442   11.9889 O.3     1  UNL1        0.0000
   1828 O          11.1067   25.3174    1.1409 O.2     1  UNL1        0.0000
   1829 O          13.6614   13.4324   11.9838 O.3     1  UNL1        0.0000
   1830 O           8.8708   23.4817    1.0808 O.2     1  UNL1        0.0000
   1831 O           8.8923   12.1004    7.9939 O.3     1  UNL1        0.0000
   1832 O          11.7448   20.4102    5.1246 O.3     1  UNL1        0.0000
   1833 O          18.3996   20.5069    1.1270 O.2     1  UNL1        0.0000
   1834 O           4.2452   16.5465   11.9148 O.3     1  UNL1        0.0000
   1835 O          17.6040   17.7526    1.1564 O.2     1  UNL1        0.0000
   1836 O           6.5134   18.3289   11.9961 O.3     1  UNL1        0.0000
   1837 O          13.4717   20.9639    3.0354 O.3     1  UNL1        0.0000
   1838 O           8.7697   13.9601   10.0165 O.3     1  UNL1        0.0000
   1839 O          15.9258   19.7388    0.1026 O.3     1  UNL1        0.0000
   1840 O          11.3581   22.8408   -0.0641 O.3     1  UNL1        0.0000
   1841 H           9.5508   19.7872   12.2543 H      36  UNL36       0.0000
   1842 H          11.6181   18.5953   10.8029 H      36  UNL36       0.0000
   1843 C          10.3042   19.0654   12.5456 C.2    36  UNL36       0.0000
   1844 H          14.3568   18.4403   11.5420 H      36  UNL36       0.0000
   1845 C          11.3200   18.4821   11.8370 C.2    36  UNL36       0.0000
   1846 H           9.5182   19.9799   15.1373 H      36  UNL36       0.0000
   1847 N          10.3650   18.5507   13.8294 N.pl3  36  UNL36       0.0000
   1848 C          14.4355   17.6580   12.3070 C.3    36  UNL36       0.0000
   1849 H          14.6412   18.1328   13.2744 H      36  UNL36       0.0000
   1850 C           9.4627   18.9077   14.9291 C.3    36  UNL36       0.0000
   1851 N          11.9724   17.6143   12.6966 N.pl3  36  UNL36       0.0000
   1852 H           8.4404   18.6336   14.6616 H      36  UNL36       0.0000
   1853 H          15.2898   17.0147   12.0546 H      36  UNL36       0.0000
   1854 C          11.3806   17.6715   13.9040 C.3    36  UNL36       0.0000
   1855 C          13.1685   16.8087   12.3617 C.3    36  UNL36       0.0000
   1856 H          12.9626   16.3097   11.4068 H      36  UNL36       0.0000
   1857 H           9.7413   18.3378   15.8161 H      36  UNL36       0.0000
   1858 H          11.6697   17.1114   14.7852 H      36  UNL36       0.0000
   1859 H          13.2404   16.0260   13.1257 H      36  UNL36       0.0000
   1860 TI          1.8195    9.3674   24.3567 Ti      1  UNL1        0.0000
   1861 TI         12.6500   12.2486   14.9919 Ti      1  UNL1        0.0000
   1862 TI          5.9162    5.4312   22.5367 Ti      1  UNL1        0.0000
   1863 TI          7.4274   14.5933   16.7637 Ti      1  UNL1        0.0000
   1864 TI          6.4288   16.2716   14.8593 Ti      1  UNL1        0.0000
   1865 TI          7.8044    5.1768   24.4901 Ti      1  UNL1        0.0000
   1866 TI          2.7687    7.6315   22.4652 Ti      1  UNL1        0.0000
   1867 TI         10.6621   12.5511   16.8393 Ti      1  UNL1        0.0000
   1868 H           8.4294    8.6708   21.7125 H       1  UNL1        0.0000
   1869 H           4.4887    2.9153   19.5935 H       1  UNL1        0.0000
   1870 H           9.4612   17.9938   17.7721 H       1  UNL1        0.0000
   1871 H           2.3214   13.2645   24.1372 H       1  UNL1        0.0000
   1872 H          13.4587    8.3425   15.3125 H       1  UNL1        0.0000
   1873 H          -2.1404    8.6107   23.9742 H       1  UNL1        0.0000
   1874 H          16.0321   14.2529   15.1925 H       1  UNL1        0.0000
   1875 H           8.7800    1.1423   24.1041 H       1  UNL1        0.0000
   1876 H           2.3703   15.6817   15.1813 H       1  UNL1        0.0000
   1877 H           9.4026   10.1873   19.9593 H       1  UNL1        0.0000
   1878 H           4.7108   10.8190   21.5115 H       1  UNL1        0.0000
   1879 H           1.0096    5.4436   19.4709 H       1  UNL1        0.0000
   1880 H           6.9232   14.6348   12.9862 H       1  UNL1        0.0000
   1881 H          10.7744   12.0059   13.2919 H       1  UNL1        0.0000
   1882 H           8.3143    4.5097   18.9790 H       1  UNL1        0.0000
   1883 H           5.7039   16.4303   20.3826 H       1  UNL1        0.0000
   1884 H          -1.3039   11.0201   22.1093 H       1  UNL1        0.0000
   1885 H          15.4047   10.1643   17.2979 H       1  UNL1        0.0000
   1886 H           0.9972    9.5727   18.7754 H       1  UNL1        0.0000
   1887 H           3.3287   18.0995   17.2125 H       1  UNL1        0.0000
   1888 H           6.8210   19.3745   15.7147 H       1  UNL1        0.0000
   1889 H          13.3009    6.3237   16.5150 H       1  UNL1        0.0000
   1890 H           9.5200   14.2734   15.4250 H       1  UNL1        0.0000
   1891 H           4.8355    7.2796   23.8303 H       1  UNL1        0.0000
   1892 H          12.0391    7.1117   22.8797 H       1  UNL1        0.0000
   1893 H          10.5580    6.6426   23.6271 H       1  UNL1        0.0000
   1894 H          12.6132   11.5453   21.7808 H       1  UNL1        0.0000
   1895 H          12.0435   11.9039   20.1623 H       1  UNL1        0.0000
   1896 H          11.5503    2.1569   22.6897 H       1  UNL1        0.0000
   1897 H          10.2712    3.2574   23.1471 H       1  UNL1        0.0000
   1898 H           6.1001    9.0119   22.4717 H       1  UNL1        0.0000
   1899 H           5.6832   12.3407   19.7572 H       1  UNL1        0.0000
   1900 H          10.7067   16.0070   16.9768 H       1  UNL1        0.0000
   1901 H          -3.0570   16.0278   17.7996 H       1  UNL1        0.0000
   1902 C          13.2280   11.5073   17.8554 C.3     1  UNL1        0.0000
   1903 C           0.8589    9.6288   21.5096 C.3     1  UNL1        0.0000
   1904 C           8.4967    4.4205   21.6120 C.3     1  UNL1        0.0000
   1905 C           5.4912   16.5638   17.7230 C.3     1  UNL1        0.0000
   1906 C          14.1240   10.9030   18.8506 C.ar    1  UNL1        0.0000
   1907 C          -0.0730   10.2538   20.5326 C.ar    1  UNL1        0.0000
   1908 C           9.4369    3.8061   20.6648 C.ar    1  UNL1        0.0000
   1909 C           4.6014   17.2106   18.7228 C.ar    1  UNL1        0.0000
   1910 C          13.8753   10.9779   20.2570 C.ar    1  UNL1        0.0000
   1911 C           0.1434   10.1338   19.1446 C.ar    1  UNL1        0.0000
   1912 C          10.5663    3.0458   21.1178 C.ar    1  UNL1        0.0000
   1913 C           3.5067   17.9836   18.2779 C.ar    1  UNL1        0.0000
   1914 C           4.8559   17.0399   20.0777 C.ar    1  UNL1        0.0000
   1915 C           9.1892    3.9383   19.2809 C.ar    1  UNL1        0.0000
   1916 C          15.2577   10.2040   18.3749 C.ar    1  UNL1        0.0000
   1917 C          -1.1731   10.9462   21.0313 C.ar    1  UNL1        0.0000
   1918 C           7.5999   11.3537   19.7603 C.ar    1  UNL1        0.0000
   1919 C           6.5180    9.6654   21.7080 C.ar    1  UNL1        0.0000
   1920 C          11.1455   16.6499   17.7381 C.ar    1  UNL1        0.0000
   1921 C           2.8072    4.2640   19.6322 C.ar    1  UNL1        0.0000
   1922 C          13.4398    8.4216   13.1685 C.ar    1  UNL1        0.0000
   1923 C           6.9700   20.2132   13.1935 C.ar    1  UNL1        0.0000
   1924 C          15.9242   14.1847   13.0424 C.ar    1  UNL1        0.0000
   1925 C           2.5659   15.7272   13.0231 C.ar    1  UNL1        0.0000
   1926 C           8.1741   12.2501   18.7283 C.3     1  UNL1        0.0000
   1927 C           3.4180    5.1558   20.6464 C.3     1  UNL1        0.0000
   1928 C          13.3039    9.8765   13.1453 C.3     1  UNL1        0.0000
   1929 C           6.8773   18.7797   13.1560 C.3     1  UNL1        0.0000
   1930 C          14.6264   13.5679   13.0893 C.3     1  UNL1        0.0000
   1931 C           3.9682   16.1415   13.0475 C.3     1  UNL1        0.0000
   1932 C           6.2722   11.5357   20.1919 C.ar    1  UNL1        0.0000
   1933 C           7.8377    9.4755   21.2793 C.ar    1  UNL1        0.0000
   1934 C          10.4444   17.7768   18.1862 C.ar    1  UNL1        0.0000
   1935 C           3.5037    3.1260   19.1829 C.ar    1  UNL1        0.0000
   1936 C          13.4791    7.7525   14.3981 C.ar    1  UNL1        0.0000
   1937 C           2.3323   13.8529   25.0511 C.ar    1  UNL1        0.0000
   1938 C          16.5795   14.4595   14.2764 C.ar    1  UNL1        0.0000
   1939 C          -2.7019    8.4314   24.8896 C.ar    1  UNL1        0.0000
   1940 C          12.4129   16.3496   18.2532 C.ar    1  UNL1        0.0000
   1941 C           1.5313    4.5581   19.1139 C.ar    1  UNL1        0.0000
   1942 C           8.3802   10.3172   20.3077 C.ar    1  UNL1        0.0000
   1943 C           5.7348   10.6912   21.1642 C.ar    1  UNL1        0.0000
   1944 C          11.9839    7.3870   24.9041 C.ar    1  UNL1        0.0000
   1945 C           1.8687   15.4967   14.2355 C.ar    1  UNL1        0.0000
   1946 C           8.8216    0.6151   25.0532 C.ar    1  UNL1        0.0000
   1947 C           6.9838   20.9644   14.4227 C.ar    1  UNL1        0.0000
   1948 N           7.0389   20.3655   15.6609 N.pl3   1  UNL1        0.0000
   1949 N          11.4048    7.2042   23.6651 N.pl3   1  UNL1        0.0000
   1950 N          12.7944   11.6242   20.7883 N.pl3   1  UNL1        0.0000
   1951 N          10.8973    2.8876   22.4352 N.pl3   1  UNL1        0.0000
   1952 O          12.0517   11.9124   18.2212 O.3     1  UNL1        0.0000
   1953 O           1.6279    8.6779   21.1114 O.3     1  UNL1        0.0000
   1954 O           8.8781    4.5450   22.8331 O.3     1  UNL1        0.0000
   1955 O           5.4254   16.9935   16.5234 O.3     1  UNL1        0.0000
   1956 O           6.2617   15.6066   18.1095 O.3     1  UNL1        0.0000
   1957 O           7.3263    4.7889   21.2065 O.3     1  UNL1        0.0000
   1958 O          13.6399   11.5881   16.6436 O.3     1  UNL1        0.0000
   1959 O           0.8169   10.0650   22.7094 O.3     1  UNL1        0.0000
   1960 O          10.9674   11.3332   15.6446 O.3     1  UNL1        0.0000
   1961 O           3.3211    9.1918   23.2097 O.3     1  UNL1        0.0000
   1962 O          11.9062   13.6205   16.0946 O.3     1  UNL1        0.0000
   1963 O           1.5690    7.4672   23.7024 O.3     1  UNL1        0.0000
   1964 O           6.1755    4.2592   23.7971 O.3     1  UNL1        0.0000
   1965 O           7.9439   16.1546   16.0252 O.3     1  UNL1        0.0000
   1966 O           7.1294    6.5207   23.3329 O.3     1  UNL1        0.0000
   1967 O           6.2377   14.3975   15.5078 O.3     1  UNL1        0.0000
   1968 O           9.3952   12.0703   18.3740 O.3     1  UNL1        0.0000
   1969 O           2.7603    6.1907   21.0246 O.3     1  UNL1        0.0000
   1970 O           8.5467    3.4050   25.0992 O.3     1  UNL1        0.0000
   1971 O           6.7942   18.0782   14.2512 O.3     1  UNL1        0.0000
   1972 O           9.3488    6.1932   25.0940 O.3     1  UNL1        0.0000
   1973 O           4.5582   16.2425   14.1911 O.3     1  UNL1        0.0000
   1974 O           4.5798    4.8612   21.1042 O.3     1  UNL1        0.0000
   1975 O           7.4322   13.1710   18.2349 O.3     1  UNL1        0.0000
   1976 O          14.0870   13.2677   14.2373 O.3     1  UNL1        0.0000
   1977 O          -0.0673    9.3073   25.0251 O.3     1  UNL1        0.0000
   1978 O          13.2915   10.5134   14.2667 O.3     1  UNL1        0.0000
   1979 O           2.2009   11.0897   25.1064 O.3     1  UNL1        0.0000
   1980 O           9.1592   13.7247   16.1457 O.3     1  UNL1        0.0000
   1981 O           4.4572    6.7209   23.1267 O.3     1  UNL1        0.0000
   1982 O          11.6133   12.4996   13.2129 O.3     1  UNL1        0.0000
   1983 O           7.0456   15.6016   13.0462 O.3     1  UNL1        0.0000
   1984 H           5.2383   12.5480   25.3645 H      37  UNL37       0.0000
   1985 H           7.3055   11.3561   23.9132 H      37  UNL37       0.0000
   1986 C           5.9917   11.8262   25.6559 C.2    37  UNL37       0.0000
   1987 H          10.0442   11.2011   24.6522 H      37  UNL37       0.0000
   1988 C           7.0074   11.2429   24.9473 C.2    37  UNL37       0.0000
   1989 H           5.2057   12.7407   28.2476 H      37  UNL37       0.0000
   1990 N           6.0525   11.3115   26.9397 N.pl3  37  UNL37       0.0000
   1991 C          10.1230   10.4188   25.4172 C.3    37  UNL37       0.0000
   1992 H          10.3287   10.8936   26.3846 H      37  UNL37       0.0000
   1993 C           5.1501   11.6685   28.0394 C.3    37  UNL37       0.0000
   1994 N           7.6599   10.3751   25.8068 N.pl3  37  UNL37       0.0000
   1995 H           4.1279   11.3944   27.7719 H      37  UNL37       0.0000
   1996 H          10.9773    9.7755   25.1649 H      37  UNL37       0.0000
   1997 C           7.0680   10.4323   27.0142 C.3    37  UNL37       0.0000
   1998 C           8.8560    9.5695   25.4720 C.3    37  UNL37       0.0000
   1999 H           8.6500    9.0705   24.5171 H      37  UNL37       0.0000
   2000 H           5.4288   11.0986   28.9264 H      37  UNL37       0.0000
   2001 H           7.3572    9.8722   27.8955 H      37  UNL37       0.0000
   2002 H           8.9279    8.7868   26.2360 H      37  UNL37       0.0000
   2003 TI         -2.4930    2.1282   37.4669 Ti      1  UNL1        0.0000
   2004 TI          8.3374    5.0094   28.1021 Ti      1  UNL1        0.0000
   2005 TI          1.6036   -1.8080   35.6470 Ti      1  UNL1        0.0000
   2006 TI          3.1148    7.3541   29.8739 Ti      1  UNL1        0.0000
   2007 TI          2.1163    9.0324   27.9695 Ti      1  UNL1        0.0000
   2008 TI          3.4918   -2.0624   37.6003 Ti      1  UNL1        0.0000
   2009 TI         -1.5438    0.3923   35.5755 Ti      1  UNL1        0.0000
   2010 TI          6.3496    5.3119   29.9496 Ti      1  UNL1        0.0000
   2011 H           4.1169    1.4316   34.8228 H       1  UNL1        0.0000
   2012 H           0.1761   -4.3239   32.7037 H       1  UNL1        0.0000
   2013 H           5.1487   10.7546   30.8824 H       1  UNL1        0.0000
   2014 H          -1.9912    6.0253   37.2475 H      17  UNL17       0.0000
   2015 H           9.1462    1.1033   28.4228 H       1  UNL1        0.0000
   2016 H          -6.4529    1.3715   37.0845 H       7  UNL7        0.0000
   2017 H          11.7196    7.0137   28.3028 H       1  UNL1        0.0000
   2018 H           4.4674   -6.0969   37.2144 H      14  UNL14       0.0000
   2019 H          -1.9423    8.4425   28.2916 H       1  UNL1        0.0000
   2020 H           5.0901    2.9481   33.0695 H       1  UNL1        0.0000
   2021 H           0.3983    3.5798   34.6218 H       1  UNL1        0.0000
   2022 H          -3.3029   -1.7956   32.5811 H       1  UNL1        0.0000
   2023 H           2.6107    7.3956   26.0965 H       1  UNL1        0.0000
   2024 H           6.4619    4.7667   26.4022 H       1  UNL1        0.0000
   2025 H           4.0018   -2.7295   32.0892 H       1  UNL1        0.0000
   2026 H           1.3914    9.1911   33.4929 H       1  UNL1        0.0000
   2027 H          -5.6165    3.7809   35.2196 H       1  UNL1        0.0000
   2028 H          11.0922    2.9251   30.4081 H       1  UNL1        0.0000
   2029 H          -3.3154    2.3335   31.8857 H       1  UNL1        0.0000
   2030 H          -0.9838   10.8603   30.3228 H       1  UNL1        0.0000
   2031 H           2.5085   12.1352   28.8250 H       1  UNL1        0.0000
   2032 H           8.9884   -0.9155   29.6253 H       1  UNL1        0.0000
   2033 H           5.2075    7.0342   28.5353 H       1  UNL1        0.0000
   2034 H           0.5229    0.0404   36.9406 H       1  UNL1        0.0000
   2035 H           7.7266   -0.1275   35.9900 H      18  UNL18       0.0000
   2036 H           6.2455   -0.5966   36.7373 H      18  UNL18       0.0000
   2037 H           8.3007    4.3061   34.8911 H       1  UNL1        0.0000
   2038 H           7.7310    4.6647   33.2726 H       1  UNL1        0.0000
   2039 H           7.2378   -5.0823   35.8000 H       1  UNL1        0.0000
   2040 H           5.9586   -3.9818   36.2574 H       1  UNL1        0.0000
   2041 H           1.7876    1.7727   35.5820 H       1  UNL1        0.0000
   2042 H           1.3707    5.1015   32.8675 H       1  UNL1        0.0000
   2043 H           6.3942    8.7678   30.0871 H       1  UNL1        0.0000
   2044 H          -7.3696    8.7886   30.9099 H       1  UNL1        0.0000
   2045 C           8.9155    4.2681   30.9657 C.3     1  UNL1        0.0000
   2046 C          -3.4536    2.3896   34.6199 C.3     1  UNL1        0.0000
   2047 C           4.1841   -2.8187   34.7222 C.3     1  UNL1        0.0000
   2048 C           1.1787    9.3246   30.8333 C.3     1  UNL1        0.0000
   2049 C           9.8115    3.6638   31.9609 C.ar    1  UNL1        0.0000
   2050 C          -4.3855    3.0146   33.6429 C.ar    1  UNL1        0.0000
   2051 C           5.1243   -3.4331   33.7751 C.ar    1  UNL1        0.0000
   2052 C           0.2889    9.9714   31.8331 C.ar    1  UNL1        0.0000
   2053 C           9.5627    3.7387   33.3673 C.ar    1  UNL1        0.0000
   2054 C          -4.1691    2.8946   32.2548 C.ar    1  UNL1        0.0000
   2055 C           6.2538   -4.1934   34.2281 C.ar    1  UNL1        0.0000
   2056 C          -0.8058   10.7444   31.3882 C.ar    1  UNL1        0.0000
   2057 C           0.5434    9.8007   33.1880 C.ar    1  UNL1        0.0000
   2058 C           4.8766   -3.3009   32.3911 C.ar    1  UNL1        0.0000
   2059 C          10.9452    2.9648   31.4851 C.ar    1  UNL1        0.0000
   2060 C          -5.4857    3.7070   34.1415 C.ar    1  UNL1        0.0000
   2061 C           3.2874    4.1145   32.8706 C.ar    1  UNL1        0.0000
   2062 C           2.2055    2.4262   34.8182 C.ar    1  UNL1        0.0000
   2063 C           6.8330    9.4107   30.8484 C.ar    1  UNL1        0.0000
   2064 C          -1.5054   -2.9752   32.7425 C.ar    1  UNL1        0.0000
   2065 C           9.1272    1.1824   26.2787 C.ar    1  UNL1        0.0000
   2066 C           2.6575   12.9740   26.3037 C.ar    1  UNL1        0.0000
   2067 C          11.6117    6.9455   26.1527 C.ar    1  UNL1        0.0000
   2068 C          -1.7467    8.4880   26.1333 C.ar    1  UNL1        0.0000
   2069 C           3.8615    5.0109   31.8385 C.3     1  UNL1        0.0000
   2070 C          -0.8945   -2.0834   33.7567 C.3     1  UNL1        0.0000
   2071 C           8.9914    2.6373   26.2555 C.3     1  UNL1        0.0000
   2072 C           2.5648   11.5405   26.2662 C.3     1  UNL1        0.0000
   2073 C          10.3138    6.3287   26.1996 C.3     1  UNL1        0.0000
   2074 C          -0.3443    8.9023   26.1578 C.3     1  UNL1        0.0000
   2075 C           1.9597    4.2965   33.3021 C.ar    1  UNL1        0.0000
   2076 C           3.5252    2.2363   34.3896 C.ar    1  UNL1        0.0000
   2077 C           6.1319   10.5376   31.2965 C.ar    1  UNL1        0.0000
   2078 C          -0.8088   -4.1132   32.2931 C.ar    1  UNL1        0.0000
   2079 C           9.1666    0.5133   27.5084 C.ar    1  UNL1        0.0000
   2080 C          -1.9802    6.6137   38.1614 C.3    17  UNL17       0.0000
   2081 C          12.2670    7.2203   27.3867 C.ar    1  UNL1        0.0000
   2082 C          -7.0144    1.1922   37.9999 C.3     7  UNL7        0.0000
   2083 C           8.1003    9.1104   31.3634 C.ar    1  UNL1        0.0000
   2084 C          -2.7812   -2.6811   32.2242 C.ar    1  UNL1        0.0000
   2085 C           4.0677    3.0780   33.4180 C.ar    1  UNL1        0.0000
   2086 C           1.4222    3.4520   34.2745 C.ar    1  UNL1        0.0000
   2087 C           7.6713    0.1478   38.0143 C.3    18  UNL18       0.0000
   2088 C          -2.4438    8.2575   27.3458 C.ar    1  UNL1        0.0000
   2089 C           4.5091   -6.6241   38.1635 C.3    14  UNL14       0.0000
   2090 C           2.6713   13.7252   27.5330 C.ar    1  UNL1        0.0000
   2091 N           2.7263   13.1263   28.7712 N.pl3   1  UNL1        0.0000
   2092 N           7.0923   -0.0350   36.7754 N.3    18  UNL18       0.0000
   2093 N           8.4818    4.3850   33.8986 N.pl3   1  UNL1        0.0000
   2094 N           6.5848   -4.3516   35.5455 N.pl3   1  UNL1        0.0000
   2095 O           7.7391    4.6732   31.3315 O.3     1  UNL1        0.0000
   2096 O          -2.6846    1.4387   34.2216 O.3     1  UNL1        0.0000
   2097 O           4.5656   -2.6943   35.9434 O.3     1  UNL1        0.0000
   2098 O           1.1128    9.7543   29.6337 O.3     1  UNL1        0.0000
   2099 O           1.9492    8.3674   31.2197 O.3     1  UNL1        0.0000
   2100 O           3.0137   -2.4503   34.3167 O.3     1  UNL1        0.0000
   2101 O           9.3273    4.3489   29.7539 O.3     1  UNL1        0.0000
   2102 O          -3.4956    2.8258   35.8196 O.3     1  UNL1        0.0000
   2103 O           6.6548    4.0940   28.7549 O.3     1  UNL1        0.0000
   2104 O          -0.9914    1.9526   36.3200 O.3     1  UNL1        0.0000
   2105 O           7.5936    6.3813   29.2049 O.3     1  UNL1        0.0000
   2106 O          -2.7436    0.2280   36.8127 O.3     1  UNL1        0.0000
   2107 O           1.8629   -2.9800   36.9074 O.3     1  UNL1        0.0000
   2108 O           3.6314    8.9154   29.1355 O.3     1  UNL1        0.0000
   2109 O           2.8169   -0.7185   36.4432 O.3     1  UNL1        0.0000
   2110 O           1.9251    7.1583   28.6180 O.3     1  UNL1        0.0000
   2111 O           5.0827    4.8311   31.4843 O.3     1  UNL1        0.0000
   2112 O          -1.5522   -1.0485   34.1349 O.3     1  UNL1        0.0000
   2113 O           4.2342   -3.8342   38.2094 O.3     1  UNL1        0.0000
   2114 O           2.4816   10.8390   27.3614 O.3     1  UNL1        0.0000
   2115 O           5.0363   -1.0460   38.2043 O.3     1  UNL1        0.0000
   2116 O           0.2457    9.0033   27.3014 O.3     1  UNL1        0.0000
   2117 O           0.2673   -2.3780   34.2145 O.3     1  UNL1        0.0000
   2118 O           3.1197    5.9318   31.3452 O.3     1  UNL1        0.0000
   2119 O           9.7745    6.0285   27.3476 O.3     1  UNL1        0.0000
   2120 O          -4.3798    2.0681   38.1354 O.3     1  UNL1        0.0000
   2121 O           8.9789    3.2742   27.3770 O.3     1  UNL1        0.0000
   2122 O          -2.1116    3.8505   38.2167 O.3     1  UNL1        0.0000
   2123 O           4.8466    6.4855   29.2560 O.3     1  UNL1        0.0000
   2124 O           0.1447   -0.5183   36.2370 O.3     1  UNL1        0.0000
   2125 O           7.3007    5.2604   26.3232 O.3     1  UNL1        0.0000
   2126 O           2.7331    8.3624   26.1564 O.3     1  UNL1        0.0000
   2127 H           0.9258    5.3088   38.4748 H      38  UNL38       0.0000
   2128 H           2.9930    4.1169   37.0234 H      38  UNL38       0.0000
   2129 C           1.6792    4.5870   38.7661 C.2    38  UNL38       0.0000
   2130 H           5.7317    3.9619   37.7625 H      38  UNL38       0.0000
   2131 C           2.6949    4.0037   38.0576 C.2    38  UNL38       0.0000
   2132 H           0.8932    5.5015   41.3578 H      38  UNL38       0.0000
   2133 N           1.7399    4.0723   40.0500 N.pl3  38  UNL38       0.0000
   2134 C           5.8105    3.1796   38.5275 C.3    38  UNL38       0.0000
   2135 H           6.0161    3.6544   39.4949 H      38  UNL38       0.0000
   2136 C           0.8376    4.4293   41.1497 C.3    38  UNL38       0.0000
   2137 N           3.3473    3.1359   38.9171 N.pl3  38  UNL38       0.0000
   2138 H          -0.1846    4.1552   40.8821 H      38  UNL38       0.0000
   2139 H           6.6648    2.5363   38.2752 H      38  UNL38       0.0000
   2140 C           2.7555    3.1931   40.1245 C.3    38  UNL38       0.0000
   2141 C           4.5434    2.3302   38.5822 C.3    38  UNL38       0.0000
   2142 H           4.3375    1.8313   37.6274 H      38  UNL38       0.0000
   2143 H           1.1163    3.8594   42.0367 H      38  UNL38       0.0000
   2144 H           3.0447    2.6330   41.0058 H      38  UNL38       0.0000
   2145 H           4.6154    1.5476   39.3462 H      38  UNL38       0.0000
   2146 TI         -0.8899   30.9834   11.2464 Ti      1  UNL1        0.0000
   2147 TI          9.9406   33.8646    1.8816 Ti      1  UNL1        0.0000
   2148 TI          3.2068   27.0472    9.4264 Ti      1  UNL1        0.0000
   2149 TI          4.7180   36.2093    3.6534 Ti      1  UNL1        0.0000
   2150 TI          3.7194   37.8876    1.7490 Ti      1  UNL1        0.0000
   2151 TI          5.0950   26.7928   11.3798 Ti      1  UNL1        0.0000
   2152 TI          0.0593   29.2475    9.3549 Ti      1  UNL1        0.0000
   2153 TI          7.9527   34.1672    3.7291 Ti      1  UNL1        0.0000
   2154 H           5.7200   30.2868    8.6022 H       1  UNL1        0.0000
   2155 H           1.7793   24.5313    6.4832 H       1  UNL1        0.0000
   2156 H           6.7518   39.6098    4.6619 H      19  UNL19       0.0000
   2157 H          -0.3880   34.8805   11.0269 H       1  UNL1        0.0000
   2158 H          10.7493   29.9585    2.2023 H       1  UNL1        0.0000
   2159 H          -4.8498   30.2268   10.8639 H       1  UNL1        0.0000
   2160 H          13.3227   35.8689    2.0822 H       1  UNL1        0.0000
   2161 H           6.0706   22.7583   10.9939 H       1  UNL1        0.0000
   2162 H          -0.3391   37.2977    2.0711 H       1  UNL1        0.0000
   2163 H           6.6932   31.8033    6.8490 H       1  UNL1        0.0000
   2164 H           2.0014   32.4351    8.4012 H       1  UNL1        0.0000
   2165 H          -1.6998   27.0596    6.3606 H       1  UNL1        0.0000
   2166 H           4.2138   36.2508   -0.1241 H       1  UNL1        0.0000
   2167 H           8.0650   33.6219    0.1817 H       1  UNL1        0.0000
   2168 H           5.6049   26.1257    5.8687 H       1  UNL1        0.0000
   2169 H           2.9945   38.0463    7.2723 H       1  UNL1        0.0000
   2170 H          -4.0133   32.6361    8.9990 H       1  UNL1        0.0000
   2171 H          12.6953   31.7803    4.1876 H       1  UNL1        0.0000
   2172 H          -1.7122   31.1887    5.6652 H       1  UNL1        0.0000
   2173 H           0.6193   39.7155    4.1022 H       1  UNL1        0.0000
   2174 H           4.1116   40.9905    2.6045 H       1  UNL1        0.0000
   2175 H          10.5915   27.9397    3.4048 H       1  UNL1        0.0000
   2176 H           6.8106   35.8895    2.3148 H       1  UNL1        0.0000
   2177 H           2.1261   28.8956   10.7200 H       1  UNL1        0.0000
   2178 H           9.3297   28.7277    9.7694 H       1  UNL1        0.0000
   2179 H           7.8486   28.2586   10.5168 H       1  UNL1        0.0000
   2180 H           9.9038   33.1613    8.6705 H       1  UNL1        0.0000
   2181 H           9.3341   33.5199    7.0520 H       1  UNL1        0.0000
   2182 H           8.8409   23.7729    9.5794 H       1  UNL1        0.0000
   2183 H           7.5618   24.8734   10.0368 H       1  UNL1        0.0000
   2184 H           3.3907   30.6279    9.3615 H       1  UNL1        0.0000
   2185 H           2.9738   33.9567    6.6470 H       1  UNL1        0.0000
   2186 H           7.9973   37.6230    3.8665 H      19  UNL19       0.0000
   2187 H          -5.7664   37.6438    4.6894 H       8  UNL8        0.0000
   2188 C          10.5186   33.1234    4.7451 C.3     1  UNL1        0.0000
   2189 C          -1.8505   31.2448    8.3994 C.3     1  UNL1        0.0000
   2190 C           5.7873   26.0365    8.5017 C.3     1  UNL1        0.0000
   2191 C           2.7818   38.1798    4.6127 C.3     1  UNL1        0.0000
   2192 C          11.4146   32.5190    5.7403 C.ar    1  UNL1        0.0000
   2193 C          -2.7824   31.8698    7.4223 C.ar    1  UNL1        0.0000
   2194 C           6.7275   25.4221    7.5545 C.ar    1  UNL1        0.0000
   2195 C           1.8920   38.8266    5.6125 C.2     1  UNL1        0.0000
   2196 C          11.1659   32.5940    7.1467 C.ar    1  UNL1        0.0000
   2197 C          -2.5660   31.7498    6.0343 C.ar    1  UNL1        0.0000
   2198 C           7.8569   24.6618    8.0076 C.ar    1  UNL1        0.0000
   2199 C           0.7973   39.5996    5.1676 C.3     1  UNL1        0.0000
   2200 C           2.1465   38.6559    6.9674 C.2     1  UNL1        0.0000
   2201 C           6.4798   25.5543    6.1706 C.ar    1  UNL1        0.0000
   2202 C          12.5483   31.8201    5.2646 C.ar    1  UNL1        0.0000
   2203 C          -3.8825   32.5622    7.9210 C.ar    1  UNL1        0.0000
   2204 C           4.8905   32.9697    6.6500 C.ar    1  UNL1        0.0000
   2205 C           3.8086   31.2814    8.5977 C.ar    1  UNL1        0.0000
   2206 C           8.4361   38.2659    4.6279 C.2    19  UNL19       0.0000
   2207 C           0.0978   25.8800    6.5220 C.ar    1  UNL1        0.0000
   2208 C          10.7304   30.0376    0.0582 C.2     1  UNL1        0.0000
   2209 C           4.2606   41.8292    0.0832 C.2     1  UNL1        0.0000
   2210 C          13.2148   35.8007   -0.0678 C.2     1  UNL1        0.0000
   2211 C          -0.1435   37.3432   -0.0872 C.2     1  UNL1        0.0000
   2212 C           5.4647   33.8661    5.6180 C.3     1  UNL1        0.0000
   2213 C           0.7086   26.7718    7.5361 C.3     1  UNL1        0.0000
   2214 C          10.5945   31.4925    0.0350 C.2     1  UNL1        0.0000
   2215 C           4.1679   40.3957    0.0457 C.2     1  UNL1        0.0000
   2216 C          11.9170   35.1839   -0.0210 C.2     1  UNL1        0.0000
   2217 C           1.2588   37.7575   -0.0628 C.2     1  UNL1        0.0000
   2218 C           3.5628   33.1517    7.0816 C.ar    1  UNL1        0.0000
   2219 C           5.1283   31.0915    8.1690 C.ar    1  UNL1        0.0000
   2220 C           7.7350   39.3929    5.0759 C.2    19  UNL19       0.0000
   2221 C           0.7943   24.7420    6.0726 C.ar    1  UNL1        0.0000
   2222 C          10.7697   29.3685    1.2879 C.3     1  UNL1        0.0000
   2223 C          -0.3771   35.4689   11.9408 C.3     1  UNL1        0.0000
   2224 C          13.8701   36.0755    1.1661 C.3     1  UNL1        0.0000
   2225 C          -5.4113   30.0474   11.7793 C.ar    1  UNL1        0.0000
   2226 C           9.7035   37.9656    5.1429 C.3    19  UNL19       0.0000
   2227 C          -1.1781   26.1741    6.0036 C.ar    1  UNL1        0.0000
   2228 C           5.6708   31.9332    7.1974 C.ar    1  UNL1        0.0000
   2229 C           3.0254   32.3072    8.0540 C.ar    1  UNL1        0.0000
   2230 C           9.2745   29.0030   11.7938 C.ar    1  UNL1        0.0000
   2231 C          -0.8407   37.1127    1.1253 C.3     1  UNL1        0.0000
   2232 C           6.1122   22.2311   11.9429 C.ar    1  UNL1        0.0000
   2233 C           4.2744   42.5804    1.3125 C.3     1  UNL1        0.0000
   2234 N           4.3295   41.9816    2.5506 N.3     1  UNL1        0.0000
   2235 N           8.6954   28.8202   10.5548 N.pl3   1  UNL1        0.0000
   2236 N          10.0850   33.2402    7.6780 N.pl3   1  UNL1        0.0000
   2237 N           8.1879   24.5036    9.3250 N.pl3   1  UNL1        0.0000
   2238 O           9.3423   33.5285    5.1109 O.3     1  UNL1        0.0000
   2239 O          -1.0815   30.2939    8.0011 O.3     1  UNL1        0.0000
   2240 O           6.1687   26.1610    9.7228 O.3     1  UNL1        0.0000
   2241 O           2.7160   38.6095    3.4131 O.3     1  UNL1        0.0000
   2242 O           3.5523   37.2226    4.9992 O.3     1  UNL1        0.0000
   2243 O           4.6168   26.4049    8.0962 O.3     1  UNL1        0.0000
   2244 O          10.9305   33.2041    3.5334 O.3     1  UNL1        0.0000
   2245 O          -1.8925   31.6810    9.5991 O.3     1  UNL1        0.0000
   2246 O           8.2580   32.9492    2.5344 O.3     1  UNL1        0.0000
   2247 O           0.6117   30.8079   10.0994 O.3     1  UNL1        0.0000
   2248 O           9.1967   35.2365    2.9843 O.3     1  UNL1        0.0000
   2249 O          -1.1404   29.0832   10.5921 O.3     1  UNL1        0.0000
   2250 O           3.4661   25.8752   10.6868 O.3     1  UNL1        0.0000
   2251 O           5.2345   37.7706    2.9149 O.3     1  UNL1        0.0000
   2252 O           4.4200   28.1367   10.2227 O.3     1  UNL1        0.0000
   2253 O           3.5283   36.0135    2.3975 O.3     1  UNL1        0.0000
   2254 O           6.6858   33.6863    5.2637 O.3     1  UNL1        0.0000
   2255 O           0.0509   27.8067    7.9143 O.3     1  UNL1        0.0000
   2256 O           5.8373   25.0210   11.9889 O.3     1  UNL1        0.0000
   2257 O           4.0848   39.6942    1.1409 O.2     1  UNL1        0.0000
   2258 O           6.6394   27.8092   11.9838 O.3     1  UNL1        0.0000
   2259 O           1.8488   37.8585    1.0808 O.2     1  UNL1        0.0000
   2260 O           1.8704   26.4772    7.9939 O.3     1  UNL1        0.0000
   2261 O           4.7228   34.7870    5.1246 O.3     1  UNL1        0.0000
   2262 O          11.3776   34.8837    1.1270 O.2     1  UNL1        0.0000
   2263 O          -2.7767   30.9233   11.9148 O.3     1  UNL1        0.0000
   2264 O          10.5821   32.1294    1.1564 O.2     1  UNL1        0.0000
   2265 O          -0.5085   32.7057   11.9961 O.2     1  UNL1        0.0000
   2266 O           6.4498   35.3407    3.0354 O.3     1  UNL1        0.0000
   2267 O           1.7478   28.3369   10.0165 O.3     1  UNL1        0.0000
   2268 O           8.9039   34.1156    0.1026 O.3     1  UNL1        0.0000
   2269 O           4.3362   37.2176   -0.0641 O.3     1  UNL1        0.0000
   2270 H           2.5289   34.1640   12.2543 H      39  UNL39       0.0000
   2271 H           4.5961   32.9722   10.8029 H      39  UNL39       0.0000
   2272 C           3.2823   33.4422   12.5456 C.2    39  UNL39       0.0000
   2273 H           7.3348   32.8171   11.5420 H      39  UNL39       0.0000
   2274 C           4.2980   32.8589   11.8370 C.2    39  UNL39       0.0000
   2275 H           2.4963   34.3567   15.1373 H      39  UNL39       0.0000
   2276 N           3.3430   32.9275   13.8294 N.pl3  39  UNL39       0.0000
   2277 C           7.4136   32.0348   12.3070 C.3    39  UNL39       0.0000
   2278 H           7.6193   32.5096   13.2744 H      39  UNL39       0.0000
   2279 C           2.4407   33.2845   14.9291 C.3    39  UNL39       0.0000
   2280 N           4.9505   31.9911   12.6966 N.pl3  39  UNL39       0.0000
   2281 H           1.4185   33.0104   14.6616 H      39  UNL39       0.0000
   2282 H           8.2679   31.3916   12.0546 H      39  UNL39       0.0000
   2283 C           4.3586   32.0483   13.9040 C.3    39  UNL39       0.0000
   2284 C           6.1465   31.1855   12.3617 C.3    39  UNL39       0.0000
   2285 H           5.9406   30.6865   11.4068 H      39  UNL39       0.0000
   2286 H           2.7194   32.7146   15.8161 H      39  UNL39       0.0000
   2287 H           4.6478   31.4882   14.7852 H      39  UNL39       0.0000
   2288 H           6.2185   30.4028   13.1257 H      39  UNL39       0.0000
   2289 TI         -5.2025   23.7442   24.3567 Ti      1  UNL1        0.0000
   2290 TI          5.6280   26.6254   14.9919 Ti      1  UNL1        0.0000
   2291 TI         -1.1058   19.8080   22.5367 Ti      1  UNL1        0.0000
   2292 TI          0.4054   28.9701   16.7637 Ti      1  UNL1        0.0000
   2293 TI         -0.5931   30.6484   14.8593 Ti      1  UNL1        0.0000
   2294 TI          0.7824   19.5536   24.4901 Ti      1  UNL1        0.0000
   2295 TI         -4.2533   22.0083   22.4652 Ti      1  UNL1        0.0000
   2296 TI          3.6402   26.9280   16.8393 Ti      1  UNL1        0.0000
   2297 H           1.4075   23.0476   21.7125 H       1  UNL1        0.0000
   2298 H          -2.5333   17.2921   19.5935 H       1  UNL1        0.0000
   2299 H           2.4393   32.3706   17.7721 H      20  UNL20       0.0000
   2300 H          -4.7006   27.6413   24.1372 H       1  UNL1        0.0000
   2301 H           6.4368   22.7193   15.3125 H       1  UNL1        0.0000
   2302 H          -9.1624   22.9876   23.9742 H       1  UNL1        0.0000
   2303 H           9.0102   28.6297   15.1925 H       1  UNL1        0.0000
   2304 H           1.7580   15.5191   24.1041 H       1  UNL1        0.0000
   2305 H          -4.6517   30.0585   15.1813 H       1  UNL1        0.0000
   2306 H           2.3807   24.5641   19.9593 H       1  UNL1        0.0000
   2307 H          -2.3111   25.1959   21.5115 H       1  UNL1        0.0000
   2308 H          -6.0123   19.8204   19.4709 H       1  UNL1        0.0000
   2309 H          -0.0987   29.0116   12.9862 H       1  UNL1        0.0000
   2310 H           3.7525   26.3827   13.2919 H       1  UNL1        0.0000
   2311 H           1.2923   18.8865   18.9790 H       1  UNL1        0.0000
   2312 H          -1.3180   30.8071   20.3826 H       1  UNL1        0.0000
   2313 H          -8.3259   25.3969   22.1093 H       1  UNL1        0.0000
   2314 H           8.3828   24.5411   17.2979 H       1  UNL1        0.0000
   2315 H          -6.0248   23.9495   18.7754 H       1  UNL1        0.0000
   2316 H          -3.6932   32.4763   17.2125 H       1  UNL1        0.0000
   2317 H          -0.2009   33.7513   15.7147 H       1  UNL1        0.0000
   2318 H           6.2790   20.7005   16.5150 H       1  UNL1        0.0000
   2319 H           2.4981   28.6502   15.4250 H       1  UNL1        0.0000
   2320 H          -2.1865   21.6564   23.8303 H       1  UNL1        0.0000
   2321 H           5.0172   21.4885   22.8797 H       1  UNL1        0.0000
   2322 H           3.5361   21.0194   23.6271 H       1  UNL1        0.0000
   2323 H           5.5913   25.9221   21.7808 H       1  UNL1        0.0000
   2324 H           5.0216   26.2807   20.1623 H       1  UNL1        0.0000
   2325 H           4.5284   16.5337   22.6897 H       1  UNL1        0.0000
   2326 H           3.2492   17.6342   23.1471 H       1  UNL1        0.0000
   2327 H          -0.9218   23.3887   22.4717 H       1  UNL1        0.0000
   2328 H          -1.3387   26.7175   19.7572 H       1  UNL1        0.0000
   2329 H           3.6847   30.3838   16.9768 H      20  UNL20       0.0000
   2330 H         -10.0790   30.4046   17.7996 H       9  UNL9        0.0000
   2331 C           6.2061   25.8842   17.8554 C.3     1  UNL1        0.0000
   2332 C          -6.1630   24.0056   21.5096 C.3     1  UNL1        0.0000
   2333 C           1.4747   18.7973   21.6120 C.3     1  UNL1        0.0000
   2334 C          -1.5307   30.9406   17.7230 C.3     1  UNL1        0.0000
   2335 C           7.1021   25.2798   18.8506 C.ar    1  UNL1        0.0000
   2336 C          -7.0949   24.6306   20.5326 C.ar    1  UNL1        0.0000
   2337 C           2.4149   18.1829   20.6648 C.ar    1  UNL1        0.0000
   2338 C          -2.4205   31.5874   18.7228 C.2     1  UNL1        0.0000
   2339 C           6.8533   25.3548   20.2570 C.ar    1  UNL1        0.0000
   2340 C          -6.8785   24.5106   19.1446 C.ar    1  UNL1        0.0000
   2341 C           3.5444   17.4226   21.1178 C.ar    1  UNL1        0.0000
   2342 C          -3.5152   32.3604   18.2779 C.3     1  UNL1        0.0000
   2343 C          -2.1660   31.4167   20.0777 C.2     1  UNL1        0.0000
   2344 C           2.1672   18.3151   19.2809 C.ar    1  UNL1        0.0000
   2345 C           8.2358   24.5809   18.3749 C.ar    1  UNL1        0.0000
   2346 C          -8.1951   25.3230   21.0313 C.ar    1  UNL1        0.0000
   2347 C           0.5780   25.7305   19.7603 C.ar    1  UNL1        0.0000
   2348 C          -0.5039   24.0422   21.7080 C.ar    1  UNL1        0.0000
   2349 C           4.1236   31.0267   17.7381 C.2    20  UNL20       0.0000
   2350 C          -4.2148   18.6408   19.6322 C.ar    1  UNL1        0.0000
   2351 C           6.4178   22.7984   13.1685 C.ar    1  UNL1        0.0000
   2352 C          -0.0519   34.5900   13.1935 C.2     1  UNL1        0.0000
   2353 C           8.9023   28.5615   13.0424 C.ar    1  UNL1        0.0000
   2354 C          -4.4561   30.1040   13.0231 C.ar    1  UNL1        0.0000
   2355 C           1.1521   26.6269   18.7283 C.3     1  UNL1        0.0000
   2356 C          -3.6039   19.5326   20.6464 C.3     1  UNL1        0.0000
   2357 C           6.2820   24.2533   13.1453 C.3     1  UNL1        0.0000
   2358 C          -0.1446   33.1565   13.1560 C.2     1  UNL1        0.0000
   2359 C           7.6044   27.9447   13.0893 C.3     1  UNL1        0.0000
   2360 C          -3.0538   30.5183   13.0475 C.3     1  UNL1        0.0000
   2361 C          -0.7497   25.9125   20.1919 C.ar    1  UNL1        0.0000
   2362 C           0.8158   23.8523   21.2793 C.ar    1  UNL1        0.0000
   2363 C           3.4225   32.1537   18.1862 C.2    20  UNL20       0.0000
   2364 C          -3.5183   17.5028   19.1829 C.ar    1  UNL1        0.0000
   2365 C           6.4572   22.1293   14.3981 C.ar    1  UNL1        0.0000
   2366 C          -4.6896   28.2297   25.0511 C.3     1  UNL1        0.0000
   2367 C           9.5576   28.8363   14.2764 C.ar    1  UNL1        0.0000
   2368 C          -9.7238   22.8082   24.8896 C.ar    1  UNL1        0.0000
   2369 C           5.3909   30.7264   18.2532 C.3    20  UNL20       0.0000
   2370 C          -5.4906   18.9349   19.1139 C.ar    1  UNL1        0.0000
   2371 C           1.3583   24.6940   20.3077 C.ar    1  UNL1        0.0000
   2372 C          -1.2872   25.0680   21.1642 C.ar    1  UNL1        0.0000
   2373 C           4.9619   21.7638   24.9041 C.ar    1  UNL1        0.0000
   2374 C          -5.1533   29.8735   14.2355 C.ar    1  UNL1        0.0000
   2375 C           1.7997   14.9919   25.0532 C.ar    1  UNL1        0.0000
   2376 C          -0.0381   35.3412   14.4227 C.3     1  UNL1        0.0000
   2377 N           0.0169   34.7424   15.6609 N.3     1  UNL1        0.0000
   2378 N           4.3829   21.5810   23.6651 N.pl3   1  UNL1        0.0000
   2379 N           5.7724   26.0010   20.7883 N.pl3   1  UNL1        0.0000
   2380 N           3.8754   17.2644   22.4352 N.pl3   1  UNL1        0.0000
   2381 O           5.0297   26.2893   18.2212 O.3     1  UNL1        0.0000
   2382 O          -5.3940   23.0547   21.1114 O.3     1  UNL1        0.0000
   2383 O           1.8562   18.9218   22.8331 O.3     1  UNL1        0.0000
   2384 O          -1.5966   31.3703   16.5234 O.3     1  UNL1        0.0000
   2385 O          -0.7602   29.9834   18.1095 O.3     1  UNL1        0.0000
   2386 O           0.3043   19.1657   21.2065 O.3     1  UNL1        0.0000
   2387 O           6.6179   25.9649   16.6436 O.3     1  UNL1        0.0000
   2388 O          -6.2050   24.4418   22.7094 O.3     1  UNL1        0.0000
   2389 O           3.9454   25.7100   15.6446 O.3     1  UNL1        0.0000
   2390 O          -3.7008   23.5687   23.2097 O.3     1  UNL1        0.0000
   2391 O           4.8842   27.9973   16.0946 O.3     1  UNL1        0.0000
   2392 O          -5.4530   21.8440   23.7024 O.3     1  UNL1        0.0000
   2393 O          -0.8465   18.6360   23.7971 O.3     1  UNL1        0.0000
   2394 O           0.9220   30.5314   16.0252 O.3     1  UNL1        0.0000
   2395 O           0.1075   20.8975   23.3329 O.3     1  UNL1        0.0000
   2396 O          -0.7843   28.7743   15.5078 O.3     1  UNL1        0.0000
   2397 O           2.3733   26.4471   18.3740 O.3     1  UNL1        0.0000
   2398 O          -4.2616   20.5675   21.0246 O.3     1  UNL1        0.0000
   2399 O           1.5248   17.7818   25.0992 O.3     1  UNL1        0.0000
   2400 O          -0.2278   32.4550   14.2512 O.2     1  UNL1        0.0000
   2401 O           2.3269   20.5700   25.0940 O.3     1  UNL1        0.0000
   2402 O          -2.4637   30.6193   14.1911 O.3     1  UNL1        0.0000
   2403 O          -2.4421   19.2380   21.1042 O.3     1  UNL1        0.0000
   2404 O           0.4103   27.5478   18.2349 O.3     1  UNL1        0.0000
   2405 O           7.0651   27.6445   14.2373 O.3     1  UNL1        0.0000
   2406 O          -7.0892   23.6841   25.0251 O.3     1  UNL1        0.0000
   2407 O           6.2695   24.8902   14.2667 O.3     1  UNL1        0.0000
   2408 O          -4.8210   25.4665   25.1064 O.2     1  UNL1        0.0000
   2409 O           2.1372   28.1015   16.1457 O.3     1  UNL1        0.0000
   2410 O          -2.5647   21.0977   23.1267 O.3     1  UNL1        0.0000
   2411 O           4.5913   26.8764   13.2129 O.3     1  UNL1        0.0000
   2412 O           0.0237   29.9784   13.0462 O.3     1  UNL1        0.0000
   2413 H          -1.7836   26.9248   25.3645 H      40  UNL40       0.0000
   2414 H           0.2836   25.7330   23.9132 H      40  UNL40       0.0000
   2415 C          -1.0302   26.2030   25.6559 C.2    40  UNL40       0.0000
   2416 H           3.0223   25.5779   24.6522 H      40  UNL40       0.0000
   2417 C          -0.0145   25.6197   24.9473 C.2    40  UNL40       0.0000
   2418 H          -1.8162   27.1175   28.2476 H      40  UNL40       0.0000
   2419 N          -0.9695   25.6883   26.9397 N.pl3  40  UNL40       0.0000
   2420 C           3.1011   24.7956   25.4172 C.3    40  UNL40       0.0000
   2421 H           3.3067   25.2704   26.3846 H      40  UNL40       0.0000
   2422 C          -1.8718   26.0453   28.0394 C.3    40  UNL40       0.0000
   2423 N           0.6379   24.7519   25.8068 N.pl3  40  UNL40       0.0000
   2424 H          -2.8940   25.7712   27.7719 H      40  UNL40       0.0000
   2425 H           3.9554   24.1524   25.1649 H      40  UNL40       0.0000
   2426 C           0.0461   24.8091   27.0142 C.3    40  UNL40       0.0000
   2427 C           1.8340   23.9463   25.4720 C.3    40  UNL40       0.0000
   2428 H           1.6281   23.4473   24.5171 H      40  UNL40       0.0000
   2429 H          -1.5931   25.4754   28.9264 H      40  UNL40       0.0000
   2430 H           0.3353   24.2490   27.8955 H      40  UNL40       0.0000
   2431 H           1.9060   23.1636   26.2360 H      40  UNL40       0.0000
   2432 TI         -9.5150   16.5050   37.4669 Ti      1  UNL1        0.0000
   2433 TI          1.3155   19.3862   28.1021 Ti      1  UNL1        0.0000
   2434 TI         -5.4183   12.5688   35.6470 Ti      1  UNL1        0.0000
   2435 TI         -3.9071   21.7309   29.8739 Ti      1  UNL1        0.0000
   2436 TI         -4.9057   23.4092   27.9695 Ti      1  UNL1        0.0000
   2437 TI         -3.5301   12.3144   37.6003 Ti      1  UNL1        0.0000
   2438 TI         -8.5658   14.7691   35.5755 Ti      1  UNL1        0.0000
   2439 TI         -0.6723   19.6887   29.9496 Ti      1  UNL1        0.0000
   2440 H          -2.9051   15.8084   34.8228 H       1  UNL1        0.0000
   2441 H          -6.8458   10.0529   32.7037 H       1  UNL1        0.0000
   2442 H          -1.8732   25.1314   30.8824 H      21  UNL21       0.0000
   2443 H          -9.0131   20.4021   37.2475 H      22  UNL22       0.0000
   2444 H           2.1243   15.4801   28.4228 H       1  UNL1        0.0000
   2445 H         -13.4749   15.7484   37.0845 H      13  UNL13       0.0000
   2446 H           4.6976   21.3905   28.3028 H       1  UNL1        0.0000
   2447 H          -2.5545    8.2799   37.2144 H      17  UNL17       0.0000
   2448 H          -8.9642   22.8193   28.2916 H       1  UNL1        0.0000
   2449 H          -1.9319   17.3249   33.0695 H       1  UNL1        0.0000
   2450 H          -6.6237   17.9566   34.6218 H       1  UNL1        0.0000
   2451 H         -10.3249   12.5812   32.5811 H       1  UNL1        0.0000
   2452 H          -4.4112   21.7724   26.0965 H       1  UNL1        0.0000
   2453 H          -0.5600   19.1435   26.4022 H       1  UNL1        0.0000
   2454 H          -3.0202   11.6473   32.0892 H       1  UNL1        0.0000
   2455 H          -5.6305   23.5679   33.4929 H       1  UNL1        0.0000
   2456 H         -12.6384   18.1577   35.2196 H       1  UNL1        0.0000
   2457 H           4.0703   17.3019   30.4081 H       1  UNL1        0.0000
   2458 H         -10.3373   16.7103   31.8857 H       1  UNL1        0.0000
   2459 H          -8.0058   25.2371   30.3228 H       1  UNL1        0.0000
   2460 H          -4.5134   26.5121   28.8250 H       1  UNL1        0.0000
   2461 H           1.9664   13.4613   29.6253 H       1  UNL1        0.0000
   2462 H          -1.8145   21.4110   28.5353 H       1  UNL1        0.0000
   2463 H          -6.4990   14.4172   36.9406 H       1  UNL1        0.0000
   2464 H           0.7047   14.2493   35.9900 H      23  UNL23       0.0000
   2465 H          -0.7765   13.7802   36.7373 H      23  UNL23       0.0000
   2466 H           1.2788   18.6829   34.8911 H       1  UNL1        0.0000
   2467 H           0.7091   19.0415   33.2726 H       1  UNL1        0.0000
   2468 H           0.2158    9.2945   35.8000 H       1  UNL1        0.0000
   2469 H          -1.0633   10.3950   36.2574 H       1  UNL1        0.0000
   2470 H          -5.2343   16.1495   35.5820 H       1  UNL1        0.0000
   2471 H          -5.6512   19.4783   32.8675 H       1  UNL1        0.0000
   2472 H          -0.6278   23.1446   30.0871 H      21  UNL21       0.0000
   2473 H         -14.3915   23.1654   30.9099 H      10  UNL10       0.0000
   2474 C           1.8935   18.6450   30.9657 C.3     1  UNL1        0.0000
   2475 C         -10.4755   16.7664   34.6199 C.3     1  UNL1        0.0000
   2476 C          -2.8378   11.5581   34.7222 C.3     1  UNL1        0.0000
   2477 C          -5.8432   23.7014   30.8333 C.3     1  UNL1        0.0000
   2478 C           2.7896   18.0406   31.9609 C.ar    1  UNL1        0.0000
   2479 C         -11.4074   17.3914   33.6429 C.ar    1  UNL1        0.0000
   2480 C          -1.8976   10.9437   33.7751 C.ar    1  UNL1        0.0000
   2481 C          -6.7330   24.3482   31.8331 C.2     1  UNL1        0.0000
   2482 C           2.5408   18.1156   33.3673 C.ar    1  UNL1        0.0000
   2483 C         -11.1910   17.2714   32.2548 C.ar    1  UNL1        0.0000
   2484 C          -0.7681   10.1834   34.2281 C.ar    1  UNL1        0.0000
   2485 C          -7.8278   25.1212   31.3882 C.3     1  UNL1        0.0000
   2486 C          -6.4785   24.1775   33.1880 C.2     1  UNL1        0.0000
   2487 C          -2.1453   11.0759   32.3911 C.ar    1  UNL1        0.0000
   2488 C           3.9232   17.3417   31.4851 C.ar    1  UNL1        0.0000
   2489 C         -12.5076   18.0838   34.1415 C.ar    1  UNL1        0.0000
   2490 C          -3.7346   18.4913   32.8706 C.ar    1  UNL1        0.0000
   2491 C          -4.8165   16.8030   34.8182 C.ar    1  UNL1        0.0000
   2492 C          -0.1890   23.7875   30.8484 C.2    21  UNL21       0.0000
   2493 C          -8.5273   11.4016   32.7425 C.ar    1  UNL1        0.0000
   2494 C           2.1053   15.5592   26.2787 C.ar    1  UNL1        0.0000
   2495 C          -4.3644   27.3508   26.3037 C.2     1  UNL1        0.0000
   2496 C           4.5897   21.3223   26.1527 C.ar    1  UNL1        0.0000
   2497 C          -8.7686   22.8648   26.1333 C.ar    1  UNL1        0.0000
   2498 C          -3.1604   19.3877   31.8385 C.3     1  UNL1        0.0000
   2499 C          -7.9165   12.2934   33.7567 C.3     1  UNL1        0.0000
   2500 C           1.9694   17.0141   26.2555 C.3     1  UNL1        0.0000
   2501 C          -4.4572   25.9173   26.2662 C.2     1  UNL1        0.0000
   2502 C           3.2919   20.7055   26.1996 C.3     1  UNL1        0.0000
   2503 C          -7.3663   23.2791   26.1578 C.3     1  UNL1        0.0000
   2504 C          -5.0622   18.6733   33.3021 C.ar    1  UNL1        0.0000
   2505 C          -3.4967   16.6131   34.3896 C.ar    1  UNL1        0.0000
   2506 C          -0.8900   24.9145   31.2965 C.2    21  UNL21       0.0000
   2507 C          -7.8308   10.2636   32.2931 C.ar    1  UNL1        0.0000
   2508 C           2.1447   14.8901   27.5084 C.ar    1  UNL1        0.0000
   2509 C          -9.0022   20.9905   38.1614 C.3    41  UNL41       0.0000
   2510 C           5.2450   21.5971   27.3867 C.ar    1  UNL1        0.0000
   2511 C         -14.0364   15.5690   37.9999 C.3    13  UNL13       0.0000
   2512 C           1.0784   23.4872   31.3634 C.3    21  UNL21       0.0000
   2513 C          -9.8032   11.6957   32.2242 C.ar    1  UNL1        0.0000
   2514 C          -2.9542   17.4548   33.4180 C.ar    1  UNL1        0.0000
   2515 C          -5.5997   17.8288   34.2745 C.ar    1  UNL1        0.0000
   2516 C           0.6494   14.5246   38.0143 C.3    23  UNL23       0.0000
   2517 C          -9.4658   22.6343   27.3458 C.ar    1  UNL1        0.0000
   2518 C          -2.5128    7.7527   38.1635 C.3    17  UNL17       0.0000
   2519 C          -4.3507   28.1020   27.5330 C.3     1  UNL1        0.0000
   2520 N          -4.2956   27.5032   28.7712 N.3     1  UNL1        0.0000
   2521 N           0.0704   14.3418   36.7754 N.3    23  UNL23       0.0000
   2522 N           1.4599   18.7618   33.8986 N.pl3   1  UNL1        0.0000
   2523 N          -0.4371   10.0252   35.5455 N.pl3   1  UNL1        0.0000
   2524 O           0.7172   19.0501   31.3315 O.3     1  UNL1        0.0000
   2525 O          -9.7065   15.8155   34.2216 O.3     1  UNL1        0.0000
   2526 O          -2.4563   11.6826   35.9434 O.3     1  UNL1        0.0000
   2527 O          -5.9091   24.1311   29.6337 O.3     1  UNL1        0.0000
   2528 O          -5.0728   22.7442   31.2197 O.3     1  UNL1        0.0000
   2529 O          -4.0082   11.9265   34.3167 O.3     1  UNL1        0.0000
   2530 O           2.3054   18.7257   29.7539 O.3     1  UNL1        0.0000
   2531 O         -10.5175   17.2026   35.8196 O.3     1  UNL1        0.0000
   2532 O          -0.3671   18.4708   28.7549 O.3     1  UNL1        0.0000
   2533 O          -8.0133   16.3294   36.3200 O.3     1  UNL1        0.0000
   2534 O           0.5717   20.7581   29.2049 O.3     1  UNL1        0.0000
   2535 O          -9.7655   14.6048   36.8127 O.3     1  UNL1        0.0000
   2536 O          -5.1590   11.3968   36.9074 O.3     1  UNL1        0.0000
   2537 O          -3.3906   23.2922   29.1355 O.3     1  UNL1        0.0000
   2538 O          -4.2050   13.6583   36.4432 O.3     1  UNL1        0.0000
   2539 O          -5.0968   21.5351   28.6180 O.3     1  UNL1        0.0000
   2540 O          -1.9393   19.2079   31.4843 O.3     1  UNL1        0.0000
   2541 O          -8.5741   13.3283   34.1349 O.3     1  UNL1        0.0000
   2542 O          -2.7878   10.5426   38.2094 O.3     1  UNL1        0.0000
   2543 O          -4.5403   25.2158   27.3614 O.2     1  UNL1        0.0000
   2544 O          -1.9856   13.3308   38.2043 O.3     1  UNL1        0.0000
   2545 O          -6.7762   23.3801   27.3014 O.3     1  UNL1        0.0000
   2546 O          -6.7547   11.9988   34.2145 O.3     1  UNL1        0.0000
   2547 O          -3.9022   20.3086   31.3452 O.3     1  UNL1        0.0000
   2548 O           2.7526   20.4053   27.3476 O.3     1  UNL1        0.0000
   2549 O         -11.4018   16.4449   38.1354 O.3     1  UNL1        0.0000
   2550 O           1.9570   17.6510   27.3770 O.3     1  UNL1        0.0000
   2551 O          -9.1336   18.2273   38.2167 O.3     1  UNL1        0.0000
   2552 O          -2.1753   20.8623   29.2560 O.3     1  UNL1        0.0000
   2553 O          -6.8773   13.8585   36.2370 O.3     1  UNL1        0.0000
   2554 O           0.2788   19.6372   26.3232 O.3     1  UNL1        0.0000
   2555 O          -4.2889   22.7392   26.1564 O.3     1  UNL1        0.0000
   2556 H          -6.0961   19.6856   38.4748 H      42  UNL42       0.0000
   2557 H          -4.0289   18.4938   37.0234 H      42  UNL42       0.0000
   2558 C          -5.3428   18.9638   38.7661 C.2    42  UNL42       0.0000
   2559 H          -1.2902   18.3387   37.7625 H      42  UNL42       0.0000
   2560 C          -4.3270   18.3805   38.0576 C.2    42  UNL42       0.0000
   2561 H          -6.1288   19.8783   41.3578 H      42  UNL42       0.0000
   2562 N          -5.2820   18.4491   40.0500 N.pl3  42  UNL42       0.0000
   2563 C          -1.2115   17.5564   38.5275 C.3    42  UNL42       0.0000
   2564 H          -1.0058   18.0312   39.4949 H      42  UNL42       0.0000
   2565 C          -6.1843   18.8061   41.1497 C.3    42  UNL42       0.0000
   2566 N          -3.6746   17.5127   38.9171 N.pl3  42  UNL42       0.0000
   2567 H          -7.2066   18.5320   40.8821 H      42  UNL42       0.0000
   2568 H          -0.3572   16.9132   38.2752 H      42  UNL42       0.0000
   2569 C          -4.2664   17.5699   40.1245 C.3    42  UNL42       0.0000
   2570 C          -2.4785   16.7071   38.5822 C.3    42  UNL42       0.0000
   2571 H          -2.6844   16.2081   37.6274 H      42  UNL42       0.0000
   2572 H          -5.9057   18.2362   42.0367 H      42  UNL42       0.0000
   2573 H          -3.9773   17.0098   41.0058 H      42  UNL42       0.0000
   2574 H          -2.4066   15.9244   39.3462 H      42  UNL42       0.0000
   2575 TI         29.1633    2.2298   11.2464 Ti      1  UNL1        0.0000
   2576 TI         39.9938    5.1110    1.8816 Ti      1  UNL1        0.0000
   2577 TI         33.2600   -1.7064    9.4264 Ti      1  UNL1        0.0000
   2578 TI         34.7712    7.4557    3.6534 Ti      1  UNL1        0.0000
   2579 TI         33.7726    9.1340    1.7490 Ti      1  UNL1        0.0000
   2580 TI         35.1482   -1.9608   11.3798 Ti      1  UNL1        0.0000
   2581 TI         30.1125    0.4939    9.3549 Ti      1  UNL1        0.0000
   2582 TI         38.0060    5.4135    3.7291 Ti      1  UNL1        0.0000
   2583 H          35.7733    1.5332    8.6022 H       1  UNL1        0.0000
   2584 H          31.8325   -4.2223    6.4832 H       1  UNL1        0.0000
   2585 H          36.8051   10.8562    4.6619 H      24  UNL24       0.0000
   2586 H          29.6652    6.1268   11.0269 H       1  UNL1        0.0000
   2587 H          40.8026    1.2049    2.2023 H       1  UNL1        0.0000
   2588 H          25.2034    1.4731   10.8639 H       1  UNL1        0.0000
   2589 H          43.3760    7.1153    2.0822 H       1  UNL1        0.0000
   2590 H          36.1238   -5.9953   10.9939 H       1  UNL1        0.0000
   2591 H          29.7141    8.5441    2.0711 H       1  UNL1        0.0000
   2592 H          36.7465    3.0497    6.8490 H       1  UNL1        0.0000
   2593 H          32.0546    3.6814    8.4012 H       1  UNL1        0.0000
   2594 H          28.3534   -1.6940    6.3606 H       1  UNL1        0.0000
   2595 H          34.2671    7.4972   -0.1241 H       1  UNL1        0.0000
   2596 H          38.1183    4.8683    0.1817 H       1  UNL1        0.0000
   2597 H          35.6581   -2.6279    5.8687 H       1  UNL1        0.0000
   2598 H          33.0478    9.2927    7.2723 H       1  UNL1        0.0000
   2599 H          26.0399    3.8825    8.9990 H       1  UNL1        0.0000
   2600 H          42.7486    3.0267    4.1876 H       1  UNL1        0.0000
   2601 H          28.3410    2.4351    5.6652 H       1  UNL1        0.0000
   2602 H          30.6726   10.9619    4.1022 H       1  UNL1        0.0000
   2603 H          34.1649   12.2368    2.6045 H       1  UNL1        0.0000
   2604 H          40.6448   -0.8139    3.4048 H      54  UNL54       0.0000
   2605 H          36.8638    7.1358    2.3148 H       1  UNL1        0.0000
   2606 H          32.1793    0.1420   10.7200 H       1  UNL1        0.0000
   2607 H          39.3830   -0.0259    9.7694 H       1  UNL1        0.0000
   2608 H          37.9019   -0.4950   10.5168 H       1  UNL1        0.0000
   2609 H          39.9571    4.4077    8.6705 H       1  UNL1        0.0000
   2610 H          39.3874    4.7663    7.0520 H       1  UNL1        0.0000
   2611 H          38.8942   -4.9808    9.5794 H       1  UNL1        0.0000
   2612 H          37.6150   -3.8802   10.0368 H       1  UNL1        0.0000
   2613 H          33.4440    1.8743    9.3615 H       1  UNL1        0.0000
   2614 H          33.0271    5.2030    6.6470 H       1  UNL1        0.0000
   2615 H          38.0505    8.8694    3.8665 H      24  UNL24       0.0000
   2616 H          24.2868    8.8902    4.6894 H       1  UNL1        0.0000
   2617 C          40.5719    4.3697    4.7451 C.2     1  UNL1        0.0000
   2618 C          28.2028    2.4911    8.3994 C.3     1  UNL1        0.0000
   2619 C          35.8405   -2.7171    8.5017 C.3     1  UNL1        0.0000
   2620 C          32.8351    9.4262    4.6127 C.3     1  UNL1        0.0000
   2621 C          41.4679    3.7654    5.7403 C.2     1  UNL1        0.0000
   2622 C          27.2709    3.1162    7.4223 C.ar    1  UNL1        0.0000
   2623 C          36.7807   -3.3315    7.5545 C.2     1  UNL1        0.0000
   2624 C          31.9453   10.0730    5.6125 C.ar    1  UNL1        0.0000
   2625 C          41.2191    3.8403    7.1467 C.3     1  UNL1        0.0000
   2626 C          27.4873    2.9962    6.0343 C.ar    1  UNL1        0.0000
   2627 C          37.9102   -4.0918    8.0076 C.2     1  UNL1        0.0000
   2628 C          30.8506   10.8460    5.1676 C.ar    1  UNL1        0.0000
   2629 C          32.1998    9.9022    6.9674 C.ar    1  UNL1        0.0000
   2630 C          36.5330   -3.1994    6.1706 C.3     1  UNL1        0.0000
   2631 C          42.6016    3.0664    5.2646 C.3     1  UNL1        0.0000
   2632 C          26.1707    3.8086    7.9210 C.ar    1  UNL1        0.0000
   2633 C          34.9438    4.2161    6.6500 C.ar    1  UNL1        0.0000
   2634 C          33.8619    2.5278    8.5977 C.ar    1  UNL1        0.0000
   2635 C          38.4893    9.5123    4.6279 C.2    24  UNL24       0.0000
   2636 C          30.1510   -2.8736    6.5220 C.2     1  UNL1        0.0000
   2637 C          40.7836    1.2840    0.0582 C.2     1  UNL1        0.0000
   2638 C          34.3139   13.0756    0.0832 C.2     1  UNL1        0.0000
   2639 C          43.2681    7.0471   -0.0678 C.2     1  UNL1        0.0000
   2640 C          29.9097    8.5895   -0.0872 C.2     1  UNL1        0.0000
   2641 C          35.5179    5.1125    5.6180 C.3     1  UNL1        0.0000
   2642 C          30.7618   -1.9819    7.5361 C.2     1  UNL1        0.0000
   2643 C          40.6478    2.7388    0.0350 C.2     1  UNL1        0.0000
   2644 C          34.2211   11.6421    0.0457 C.2     1  UNL1        0.0000
   2645 C          41.9702    6.4303   -0.0210 C.2     1  UNL1        0.0000
   2646 C          31.3120    9.0039   -0.0628 C.2     1  UNL1        0.0000
   2647 C          33.6161    4.3981    7.0816 C.ar    1  UNL1        0.0000
   2648 C          35.1816    2.3379    8.1690 C.ar    1  UNL1        0.0000
   2649 C          37.7883   10.6392    5.0759 C.2    24  UNL24       0.0000
   2650 C          30.8475   -4.0116    6.0726 C.3     1  UNL1        0.0000
   2651 C          40.8230    0.6149    1.2879 C.3     1  UNL1        0.0000
   2652 C          29.6761    6.7152   11.9408 C.ar    1  UNL1        0.0000
   2653 C          43.9234    7.3219    1.1661 C.3     1  UNL1        0.0000
   2654 C          24.6420    1.2938   11.7793 C.ar    1  UNL1        0.0000
   2655 C          39.7567    9.2120    5.1429 C.3    24  UNL24       0.0000
   2656 C          28.8752   -2.5795    6.0036 C.3     1  UNL1        0.0000
   2657 C          35.7241    3.1796    7.1974 C.ar    1  UNL1        0.0000
   2658 C          33.0786    3.5536    8.0540 C.ar    1  UNL1        0.0000
   2659 C          39.3277    0.2494   11.7938 C.3     1  UNL1        0.0000
   2660 C          29.2125    8.3591    1.1253 C.3     1  UNL1        0.0000
   2661 C          36.1655   -6.5225   11.9429 C.3     1  UNL1        0.0000
   2662 C          34.3277   13.8268    1.3125 C.3     1  UNL1        0.0000
   2663 N          34.3827   13.2279    2.5506 N.3     1  UNL1        0.0000
   2664 N          38.7487    0.0666   10.5548 N.3     1  UNL1        0.0000
   2665 N          40.1382    4.4866    7.6780 N.3     1  UNL1        0.0000
   2666 N          38.2412   -4.2500    9.3250 N.pl3   1  UNL1        0.0000
   2667 O          39.3955    4.7748    5.1109 O.2     1  UNL1        0.0000
   2668 O          28.9718    1.5403    8.0011 O.3     1  UNL1        0.0000
   2669 O          36.2220   -2.5927    9.7228 O.3     1  UNL1        0.0000
   2670 O          32.7692    9.8559    3.4131 O.3     1  UNL1        0.0000
   2671 O          33.6056    8.4690    4.9992 O.3     1  UNL1        0.0000
   2672 O          34.6701   -2.3487    8.0962 O.3     1  UNL1        0.0000
   2673 O          40.9837    4.4505    3.5334 O.2     1  UNL1        0.0000
   2674 O          28.1608    2.9274    9.5991 O.3     1  UNL1        0.0000
   2675 O          38.3112    4.1956    2.5344 O.3     1  UNL1        0.0000
   2676 O          30.6650    2.0542   10.0994 O.3     1  UNL1        0.0000
   2677 O          39.2500    6.4829    2.9843 O.3     1  UNL1        0.0000
   2678 O          28.9128    0.3296   10.5921 O.3     1  UNL1        0.0000
   2679 O          33.5193   -2.8784   10.6868 O.3     1  UNL1        0.0000
   2680 O          35.2878    9.0170    2.9149 O.3     1  UNL1        0.0000
   2681 O          34.4733   -0.6169   10.2227 O.3     1  UNL1        0.0000
   2682 O          33.5815    7.2599    2.3975 O.3     1  UNL1        0.0000
   2683 O          36.7391    4.9327    5.2637 O.3     1  UNL1        0.0000
   2684 O          30.1042   -0.9469    7.9143 O.2     1  UNL1        0.0000
   2685 O          35.8906   -3.7326   11.9889 O.2     1  UNL1        0.0000
   2686 O          34.1380   10.9406    1.1409 O.2     1  UNL1        0.0000
   2687 O          36.6927   -0.9445   11.9838 O.2     1  UNL1        0.0000
   2688 O          31.9021    9.1049    1.0808 O.2     1  UNL1        0.0000
   2689 O          31.9237   -2.2764    7.9939 O.2     1  UNL1        0.0000
   2690 O          34.7761    6.0334    5.1246 O.3     1  UNL1        0.0000
   2691 O          41.4309    6.1301    1.1270 O.2     1  UNL1        0.0000
   2692 O          27.2766    2.1697   11.9148 O.3     1  UNL1        0.0000
   2693 O          40.6353    3.3758    1.1564 O.2     1  UNL1        0.0000
   2694 O          29.5448    3.9521   11.9961 O.3     1  UNL1        0.0000
   2695 O          36.5030    6.5871    3.0354 O.3     1  UNL1        0.0000
   2696 O          31.8011   -0.4167   10.0165 O.3     1  UNL1        0.0000
   2697 O          38.9571    5.3620    0.1026 O.3     1  UNL1        0.0000
   2698 O          34.3895    8.4640   -0.0641 O.3     1  UNL1        0.0000
   2699 H          32.5822    5.4104   12.2543 H      44  UNL44       0.0000
   2700 H          34.6494    4.2185   10.8029 H      44  UNL44       0.0000
   2701 C          33.3356    4.6886   12.5456 C.2    44  UNL44       0.0000
   2702 H          37.3881    4.0635   11.5420 H      44  UNL44       0.0000
   2703 C          34.3513    4.1053   11.8370 C.2    44  UNL44       0.0000
   2704 H          32.5495    5.6031   15.1373 H      44  UNL44       0.0000
   2705 N          33.3963    4.1739   13.8294 N.pl3  44  UNL44       0.0000
   2706 C          37.4669    3.2812   12.3070 C.3    44  UNL44       0.0000
   2707 H          37.6725    3.7560   13.2744 H      44  UNL44       0.0000
   2708 C          32.4940    4.5309   14.9291 C.3    44  UNL44       0.0000
   2709 N          35.0037    3.2375   12.6966 N.pl3  44  UNL44       0.0000
   2710 H          31.4717    4.2568   14.6616 H      44  UNL44       0.0000
   2711 H          38.3211    2.6379   12.0546 H      44  UNL44       0.0000
   2712 C          34.4119    3.2947   13.9040 C.3    44  UNL44       0.0000
   2713 C          36.1998    2.4318   12.3617 C.3    44  UNL44       0.0000
   2714 H          35.9939    1.9329   11.4068 H      44  UNL44       0.0000
   2715 H          32.7727    3.9610   15.8161 H      44  UNL44       0.0000
   2716 H          34.7011    2.7346   14.7852 H      44  UNL44       0.0000
   2717 H          36.2718    1.6491   13.1257 H      44  UNL44       0.0000
   2718 TI         24.8508   -5.0094   24.3567 Ti      1  UNL1        0.0000
   2719 TI         35.6813   -2.1282   14.9919 Ti      1  UNL1        0.0000
   2720 TI         28.9475   -8.9456   22.5367 Ti      1  UNL1        0.0000
   2721 TI         30.4587    0.2165   16.7637 Ti      1  UNL1        0.0000
   2722 TI         29.4601    1.8948   14.8593 Ti      1  UNL1        0.0000
   2723 TI         30.8357   -9.2000   24.4901 Ti      1  UNL1        0.0000
   2724 TI         25.8000   -6.7453   22.4652 Ti      1  UNL1        0.0000
   2725 TI         33.6935   -1.8257   16.8393 Ti      1  UNL1        0.0000
   2726 H          31.4607   -5.7060   21.7125 H       1  UNL1        0.0000
   2727 H          27.5200  -11.4615   19.5935 H       1  UNL1        0.0000
   2728 H          32.4926    3.6170   17.7721 H      25  UNL25       0.0000
   2729 H          25.3527   -1.1124   24.1372 H       1  UNL1        0.0000
   2730 H          36.4901   -6.0343   15.3125 H       1  UNL1        0.0000
   2731 H          20.8909   -5.7661   23.9742 H       1  UNL1        0.0000
   2732 H          39.0634   -0.1239   15.1925 H       1  UNL1        0.0000
   2733 H          31.8113  -13.2345   24.1041 H       1  UNL1        0.0000
   2734 H          25.4016    1.3049   15.1813 H       1  UNL1        0.0000
   2735 H          32.4339   -4.1895   19.9593 H       1  UNL1        0.0000
   2736 H          27.7421   -3.5578   21.5115 H       1  UNL1        0.0000
   2737 H          24.0409   -8.9332   19.4709 H       1  UNL1        0.0000
   2738 H          29.9546    0.2580   12.9862 H       1  UNL1        0.0000
   2739 H          33.8058   -2.3709   13.2919 H       1  UNL1        0.0000
   2740 H          31.3456   -9.8671   18.9790 H       1  UNL1        0.0000
   2741 H          28.7353    2.0535   20.3826 H       1  UNL1        0.0000
   2742 H          21.7274   -3.3567   22.1093 H       1  UNL1        0.0000
   2743 H          38.4360   -4.2126   17.2979 H       1  UNL1        0.0000
   2744 H          24.0285   -4.8041   18.7754 H       1  UNL1        0.0000
   2745 H          26.3600    3.7227   17.2125 H       1  UNL1        0.0000
   2746 H          29.8524    4.9976   15.7147 H       1  UNL1        0.0000
   2747 H          36.3322   -8.0531   16.5150 H      54  UNL54       0.0000
   2748 H          32.5513   -0.1034   15.4250 H       1  UNL1        0.0000
   2749 H          27.8668   -7.0972   23.8303 H       1  UNL1        0.0000
   2750 H          35.0704   -7.2651   22.8797 H       1  UNL1        0.0000
   2751 H          33.5893   -7.7342   23.6271 H       1  UNL1        0.0000
   2752 H          35.6446   -2.8315   21.7808 H       1  UNL1        0.0000
   2753 H          35.0748   -2.4729   20.1623 H       1  UNL1        0.0000
   2754 H          34.5816  -12.2200   22.6897 H       1  UNL1        0.0000
   2755 H          33.3025  -11.1194   23.1471 H       1  UNL1        0.0000
   2756 H          29.1314   -5.3649   22.4717 H       1  UNL1        0.0000
   2757 H          28.7146   -2.0362   19.7572 H       1  UNL1        0.0000
   2758 H          33.7380    1.6302   16.9768 H      25  UNL25       0.0000
   2759 H          19.9743    1.6510   17.7996 H       1  UNL1        0.0000
   2760 C          36.2593   -2.8695   17.8554 C.2     1  UNL1        0.0000
   2761 C          23.8903   -4.7481   21.5096 C.3     1  UNL1        0.0000
   2762 C          31.5280   -9.9563   21.6120 C.3     1  UNL1        0.0000
   2763 C          28.5226    2.1870   17.7230 C.3     1  UNL1        0.0000
   2764 C          37.1553   -3.4738   18.8506 C.2     1  UNL1        0.0000
   2765 C          22.9584   -4.1230   20.5326 C.ar    1  UNL1        0.0000
   2766 C          32.4682  -10.5707   20.6648 C.2     1  UNL1        0.0000
   2767 C          27.6328    2.8338   18.7228 C.ar    1  UNL1        0.0000
   2768 C          36.9066   -3.3989   20.2570 C.3     1  UNL1        0.0000
   2769 C          23.1748   -4.2430   19.1446 C.ar    1  UNL1        0.0000
   2770 C          33.5977  -11.3310   21.1178 C.2     1  UNL1        0.0000
   2771 C          26.5380    3.6068   18.2779 C.ar    1  UNL1        0.0000
   2772 C          27.8872    2.6630   20.0777 C.ar    1  UNL1        0.0000
   2773 C          32.2205  -10.4386   19.2809 C.3     1  UNL1        0.0000
   2774 C          38.2890   -4.1728   18.3749 C.3     1  UNL1        0.0000
   2775 C          21.8582   -3.4306   21.0313 C.ar    1  UNL1        0.0000
   2776 C          30.6312   -3.0231   19.7603 C.ar    1  UNL1        0.0000
   2777 C          29.5493   -4.7114   21.7080 C.ar    1  UNL1        0.0000
   2778 C          34.1768    2.2731   17.7381 C.2    25  UNL25       0.0000
   2779 C          25.8385  -10.1128   19.6322 C.2     1  UNL1        0.0000
   2780 C          36.4711   -5.9552   13.1685 C.2     1  UNL1        0.0000
   2781 C          30.0014    5.8364   13.1935 C.ar    1  UNL1        0.0000
   2782 C          38.9555   -0.1921   13.0424 C.2     1  UNL1        0.0000
   2783 C          25.5972    1.3503   13.0231 C.ar    1  UNL1        0.0000
   2784 C          31.2054   -2.1267   18.7283 C.3     1  UNL1        0.0000
   2785 C          26.4493   -9.2211   20.6464 C.2     1  UNL1        0.0000
   2786 C          36.3352   -4.5004   13.1453 C.2     1  UNL1        0.0000
   2787 C          29.9086    4.4029   13.1560 C.3     1  UNL1        0.0000
   2788 C          37.6577   -0.8089   13.0893 C.2     1  UNL1        0.0000
   2789 C          26.9995    1.7647   13.0475 C.3     1  UNL1        0.0000
   2790 C          29.3035   -2.8411   20.1919 C.ar    1  UNL1        0.0000
   2791 C          30.8691   -4.9013   21.2793 C.ar    1  UNL1        0.0000
   2792 C          33.4758    3.4000   18.1862 C.2    25  UNL25       0.0000
   2793 C          26.5350  -11.2508   19.1829 C.3     1  UNL1        0.0000
   2794 C          36.5104   -6.6243   14.3981 C.3     1  UNL1        0.0000
   2795 C          25.3636   -0.5240   25.0511 C.ar    1  UNL1        0.0000
   2796 C          39.6108    0.0827   14.2764 C.3     1  UNL1        0.0000
   2797 C          20.3294   -5.9454   24.8896 C.ar    1  UNL1        0.0000
   2798 C          35.4442    1.9728   18.2532 C.3    25  UNL25       0.0000
   2799 C          24.5626   -9.8187   19.1139 C.3     1  UNL1        0.0000
   2800 C          31.4116   -4.0596   20.3077 C.ar    1  UNL1        0.0000
   2801 C          28.7661   -3.6856   21.1642 C.ar    1  UNL1        0.0000
   2802 C          35.0152   -6.9898   24.9041 C.3     1  UNL1        0.0000
   2803 C          24.9000    1.1199   14.2355 C.ar    1  UNL1        0.0000
   2804 C          31.8530  -13.7617   25.0532 C.3     1  UNL1        0.0000
   2805 C          30.0151    6.5876   14.4227 C.ar    1  UNL1        0.0000
   2806 N          30.0702    5.9887   15.6609 N.pl3   1  UNL1        0.0000
   2807 N          34.4362   -7.1726   23.6651 N.3     1  UNL1        0.0000
   2808 N          35.8257   -2.7526   20.7883 N.3     1  UNL1        0.0000
   2809 N          33.9287  -11.4892   22.4352 N.pl3   1  UNL1        0.0000
   2810 O          35.0830   -2.4644   18.2212 O.2     1  UNL1        0.0000
   2811 O          24.6593   -5.6989   21.1114 O.3     1  UNL1        0.0000
   2812 O          31.9095   -9.8319   22.8331 O.3     1  UNL1        0.0000
   2813 O          28.4567    2.6167   16.5234 O.3     1  UNL1        0.0000
   2814 O          29.2930    1.2298   18.1095 O.3     1  UNL1        0.0000
   2815 O          30.3576   -9.5879   21.2065 O.3     1  UNL1        0.0000
   2816 O          36.6712   -2.7887   16.6436 O.2     1  UNL1        0.0000
   2817 O          23.8483   -4.3118   22.7094 O.3     1  UNL1        0.0000
   2818 O          33.9987   -3.0436   15.6446 O.3     1  UNL1        0.0000
   2819 O          26.3525   -5.1850   23.2097 O.3     1  UNL1        0.0000
   2820 O          34.9375   -0.7563   16.0946 O.3     1  UNL1        0.0000
   2821 O          24.6003   -6.9097   23.7024 O.3     1  UNL1        0.0000
   2822 O          29.2068  -10.1176   23.7971 O.3     1  UNL1        0.0000
   2823 O          30.9752    1.7778   16.0252 O.3     1  UNL1        0.0000
   2824 O          30.1608   -7.8561   23.3329 O.3     1  UNL1        0.0000
   2825 O          29.2690    0.0207   15.5078 O.3     1  UNL1        0.0000
   2826 O          32.4265   -2.3065   18.3740 O.3     1  UNL1        0.0000
   2827 O          25.7917   -8.1861   21.0246 O.2     1  UNL1        0.0000
   2828 O          31.5780  -10.9718   25.0992 O.2     1  UNL1        0.0000
   2829 O          29.8255    3.7014   14.2512 O.3     1  UNL1        0.0000
   2830 O          32.3802   -8.1837   25.0940 O.2     1  UNL1        0.0000
   2831 O          27.5896    1.8657   14.1911 O.3     1  UNL1        0.0000
   2832 O          27.6111   -9.5156   21.1042 O.2     1  UNL1        0.0000
   2833 O          30.4636   -1.2058   18.2349 O.3     1  UNL1        0.0000
   2834 O          37.1184   -1.1091   14.2373 O.2     1  UNL1        0.0000
   2835 O          22.9640   -5.0695   25.0251 O.3     1  UNL1        0.0000
   2836 O          36.3228   -3.8634   14.2667 O.2     1  UNL1        0.0000
   2837 O          25.2322   -3.2872   25.1064 O.3     1  UNL1        0.0000
   2838 O          32.1905   -0.6521   16.1457 O.3     1  UNL1        0.0000
   2839 O          27.4885   -7.6559   23.1267 O.3     1  UNL1        0.0000
   2840 O          34.6446   -1.8772   13.2129 O.3     1  UNL1        0.0000
   2841 O          30.0769    1.2248   13.0462 O.3     1  UNL1        0.0000
   2842 H          28.2696   -1.8288   25.3645 H      46  UNL46       0.0000
   2843 H          30.3369   -3.0207   23.9132 H      46  UNL46       0.0000
   2844 C          29.0230   -2.5506   25.6559 C.2    46  UNL46       0.0000
   2845 H          33.0755   -3.1757   24.6522 H      46  UNL46       0.0000
   2846 C          30.0388   -3.1339   24.9473 C.2    46  UNL46       0.0000
   2847 H          28.2370   -1.6361   28.2476 H      46  UNL46       0.0000
   2848 N          29.0838   -3.0653   26.9397 N.pl3  46  UNL46       0.0000
   2849 C          33.1543   -3.9580   25.4172 C.3    46  UNL46       0.0000
   2850 H          33.3600   -3.4832   26.3846 H      46  UNL46       0.0000
   2851 C          28.1815   -2.7083   28.0394 C.3    46  UNL46       0.0000
   2852 N          30.6912   -4.0017   25.8068 N.pl3  46  UNL46       0.0000
   2853 H          27.1592   -2.9825   27.7719 H      46  UNL46       0.0000
   2854 H          34.0086   -4.6013   25.1649 H      46  UNL46       0.0000
   2855 C          30.0993   -3.9445   27.0142 C.3    46  UNL46       0.0000
   2856 C          31.8873   -4.8074   25.4720 C.3    46  UNL46       0.0000
   2857 H          31.6814   -5.3063   24.5171 H      46  UNL46       0.0000
   2858 H          28.4601   -3.2782   28.9264 H      46  UNL46       0.0000
   2859 H          30.3885   -4.5046   27.8955 H      46  UNL46       0.0000
   2860 H          31.9592   -5.5901   26.2360 H      46  UNL46       0.0000
   2861 TI         20.5383  -12.2486   37.4669 Ti      1  UNL1        0.0000
   2862 TI         31.3688   -9.3674   28.1021 Ti      1  UNL1        0.0000
   2863 TI         24.6350  -16.1848   35.6470 Ti      1  UNL1        0.0000
   2864 TI         26.1462   -7.0227   29.8739 Ti      1  UNL1        0.0000
   2865 TI         25.1476   -5.3444   27.9695 Ti      1  UNL1        0.0000
   2866 TI         26.5232  -16.4392   37.6003 Ti      1  UNL1        0.0000
   2867 TI         21.4875  -13.9845   35.5755 Ti      1  UNL1        0.0000
   2868 TI         29.3809   -9.0649   29.9496 Ti      1  UNL1        0.0000
   2869 H          27.1482  -12.9452   34.8228 H       1  UNL1        0.0000
   2870 H          23.2075  -18.7007   32.7037 H       1  UNL1        0.0000
   2871 H          28.1800   -3.6222   30.8824 H      26  UNL26       0.0000
   2872 H          21.0402   -8.3516   37.2475 H      27  UNL27       0.0000
   2873 H          32.1775  -13.2735   28.4228 H       1  UNL1        0.0000
   2874 H          16.5784  -13.0053   37.0845 H      15  UNL15       0.0000
   2875 H          34.7509   -7.3631   28.3028 H       1  UNL1        0.0000
   2876 H          27.4988  -20.4737   37.2144 H      29  UNL29       0.0000
   2877 H          21.0891   -5.9343   28.2916 H       1  UNL1        0.0000
   2878 H          28.1214  -11.4287   33.0695 H       1  UNL1        0.0000
   2879 H          23.4296  -10.7970   34.6218 H       1  UNL1        0.0000
   2880 H          19.7284  -16.1724   32.5811 H       1  UNL1        0.0000
   2881 H          25.6420   -6.9812   26.0965 H       1  UNL1        0.0000
   2882 H          29.4932   -9.6101   26.4022 H       1  UNL1        0.0000
   2883 H          27.0331  -17.1063   32.0892 H       1  UNL1        0.0000
   2884 H          24.4227   -5.1857   33.4929 H       1  UNL1        0.0000
   2885 H          17.4149  -10.5959   35.2196 H       1  UNL1        0.0000
   2886 H          34.1235  -11.4518   30.4081 H       1  UNL1        0.0000
   2887 H          19.7160  -12.0433   31.8857 H       1  UNL1        0.0000
   2888 H          22.0475   -3.5165   30.3228 H       1  UNL1        0.0000
   2889 H          25.5398   -2.2416   28.8250 H       1  UNL1        0.0000
   2890 H          32.0197  -15.2923   29.6253 H      54  UNL54       0.0000
   2891 H          28.2388   -7.3426   28.5353 H       1  UNL1        0.0000
   2892 H          23.5543  -14.3364   36.9406 H       1  UNL1        0.0000
   2893 H          30.7579  -14.5043   35.9900 H      28  UNL28       0.0000
   2894 H          29.2768  -14.9734   36.7373 H      28  UNL28       0.0000
   2895 H          31.3320  -10.0707   34.8911 H       1  UNL1        0.0000
   2896 H          30.7623   -9.7121   33.2726 H       1  UNL1        0.0000
   2897 H          30.2691  -19.4592   35.8000 H       1  UNL1        0.0000
   2898 H          28.9900  -18.3586   36.2574 H       1  UNL1        0.0000
   2899 H          24.8189  -12.6041   35.5820 H       1  UNL1        0.0000
   2900 H          24.4020   -9.2754   32.8675 H       1  UNL1        0.0000
   2901 H          29.4255   -5.6090   30.0871 H      26  UNL26       0.0000
   2902 H          15.6618   -5.5882   30.9099 H       1  UNL1        0.0000
   2903 C          31.9468  -10.1087   30.9657 C.2     1  UNL1        0.0000
   2904 C          19.5777  -11.9873   34.6199 C.3     1  UNL1        0.0000
   2905 C          27.2155  -17.1955   34.7222 C.3     1  UNL1        0.0000
   2906 C          24.2100   -5.0522   30.8333 C.3     1  UNL1        0.0000
   2907 C          32.8428  -10.7130   31.9609 C.2     1  UNL1        0.0000
   2908 C          18.6458  -11.3622   33.6429 C.ar    1  UNL1        0.0000
   2909 C          28.1557  -17.8099   33.7751 C.2     1  UNL1        0.0000
   2910 C          23.3202   -4.4054   31.8331 C.ar    1  UNL1        0.0000
   2911 C          32.5941  -10.6381   33.3673 C.3     1  UNL1        0.0000
   2912 C          18.8622  -11.4822   32.2548 C.ar    1  UNL1        0.0000
   2913 C          29.2851  -18.5702   34.2281 C.2     1  UNL1        0.0000
   2914 C          22.2255   -3.6324   31.3882 C.ar    1  UNL1        0.0000
   2915 C          23.5747   -4.5762   33.1880 C.ar    1  UNL1        0.0000
   2916 C          27.9080  -17.6778   32.3911 C.3     1  UNL1        0.0000
   2917 C          33.9765  -11.4120   31.4851 C.3     1  UNL1        0.0000
   2918 C          17.5457  -10.6698   34.1415 C.ar    1  UNL1        0.0000
   2919 C          26.3187  -10.2623   32.8706 C.ar    1  UNL1        0.0000
   2920 C          25.2368  -11.9506   34.8182 C.ar    1  UNL1        0.0000
   2921 C          29.8643   -4.9661   30.8484 C.2    26  UNL26       0.0000
   2922 C          21.5260  -17.3520   32.7425 C.2     1  UNL1        0.0000
   2923 C          32.1586  -13.1944   26.2787 C.2     1  UNL1        0.0000
   2924 C          25.6888   -1.4028   26.3037 C.ar    1  UNL1        0.0000
   2925 C          34.6430   -7.4313   26.1527 C.2     1  UNL1        0.0000
   2926 C          21.2847   -5.8889   26.1333 C.ar    1  UNL1        0.0000
   2927 C          26.8929   -9.3659   31.8385 C.3     1  UNL1        0.0000
   2928 C          22.1368  -16.4603   33.7567 C.2     1  UNL1        0.0000
   2929 C          32.0227  -11.7396   26.2555 C.2     1  UNL1        0.0000
   2930 C          25.5961   -2.8363   26.2662 C.3     1  UNL1        0.0000
   2931 C          33.3452   -8.0481   26.1996 C.2     1  UNL1        0.0000
   2932 C          22.6870   -5.4745   26.1578 C.3     1  UNL1        0.0000
   2933 C          24.9910  -10.0803   33.3021 C.ar    1  UNL1        0.0000
   2934 C          26.5565  -12.1405   34.3896 C.ar    1  UNL1        0.0000
   2935 C          29.1632   -3.8392   31.2965 C.2    26  UNL26       0.0000
   2936 C          22.2225  -18.4900   32.2931 C.3     1  UNL1        0.0000
   2937 C          32.1979  -13.8635   27.5084 C.3     1  UNL1        0.0000
   2938 C          21.0511   -7.7632   38.1614 C.3    27  UNL27       0.0000
   2939 C          35.2983   -7.1565   27.3867 C.3     1  UNL1        0.0000
   2940 C          16.0169  -13.1846   37.9999 C.3    15  UNL15       0.0000
   2941 C          31.1317   -5.2664   31.3634 C.3    26  UNL26       0.0000
   2942 C          20.2501  -17.0579   32.2242 C.3     1  UNL1        0.0000
   2943 C          27.0990  -11.2988   33.4180 C.ar    1  UNL1        0.0000
   2944 C          24.4536  -10.9248   34.2745 C.ar    1  UNL1        0.0000
   2945 C          30.7027  -14.2290   38.0143 C.3    28  UNL28       0.0000
   2946 C          20.5875   -6.1193   27.3458 C.ar    1  UNL1        0.0000
   2947 C          27.5404  -21.0009   38.1635 C.3    48  UNL48       0.0000
   2948 C          25.7026   -0.6516   27.5330 C.ar    1  UNL1        0.0000
   2949 N          25.7577   -1.2505   28.7712 N.pl3   1  UNL1        0.0000
   2950 N          30.1236  -14.4118   36.7754 N.3    28  UNL28       0.0000
   2951 N          31.5132   -9.9918   33.8986 N.3     1  UNL1        0.0000
   2952 N          29.6161  -18.7284   35.5455 N.pl3   1  UNL1        0.0000
   2953 O          30.7705   -9.7036   31.3315 O.2     1  UNL1        0.0000
   2954 O          20.3467  -12.9381   34.2216 O.3     1  UNL1        0.0000
   2955 O          27.5969  -17.0711   35.9434 O.3     1  UNL1        0.0000
   2956 O          24.1442   -4.6225   29.6337 O.3     1  UNL1        0.0000
   2957 O          24.9805   -6.0094   31.2197 O.3     1  UNL1        0.0000
   2958 O          26.0450  -16.8271   34.3167 O.3     1  UNL1        0.0000
   2959 O          32.3587  -10.0279   29.7539 O.2     1  UNL1        0.0000
   2960 O          19.5357  -11.5510   35.8196 O.3     1  UNL1        0.0000
   2961 O          29.6862  -10.2828   28.7549 O.3     1  UNL1        0.0000
   2962 O          22.0399  -12.4242   36.3200 O.3     1  UNL1        0.0000
   2963 O          30.6249   -7.9955   29.2049 O.3     1  UNL1        0.0000
   2964 O          20.2878  -14.1489   36.8127 O.3     1  UNL1        0.0000
   2965 O          24.8943  -17.3568   36.9074 O.3     1  UNL1        0.0000
   2966 O          26.6627   -5.4614   29.1355 O.3     1  UNL1        0.0000
   2967 O          25.8482  -15.0953   36.4432 O.3     1  UNL1        0.0000
   2968 O          24.9565   -7.2185   28.6180 O.3     1  UNL1        0.0000
   2969 O          28.1140   -9.5458   31.4843 O.3     1  UNL1        0.0000
   2970 O          21.4791  -15.4253   34.1349 O.2     1  UNL1        0.0000
   2971 O          27.2655  -18.2110   38.2094 O.3     1  UNL1        0.0000
   2972 O          25.5130   -3.5378   27.3614 O.3     1  UNL1        0.0000
   2973 O          28.0676  -15.4229   38.2043 O.3     1  UNL1        0.0000
   2974 O          23.2770   -5.3735   27.3014 O.3     1  UNL1        0.0000
   2975 O          23.2986  -16.7548   34.2145 O.2     1  UNL1        0.0000
   2976 O          26.1510   -8.4450   31.3452 O.3     1  UNL1        0.0000
   2977 O          32.8058   -8.3483   27.3476 O.2     1  UNL1        0.0000
   2978 O          18.6515  -12.3087   38.1354 O.3     1  UNL1        0.0000
   2979 O          32.0103  -11.1026   27.3770 O.2     1  UNL1        0.0000
   2980 O          20.9197  -10.5264   38.2167 O.3     1  UNL1        0.0000
   2981 O          27.8779   -7.8913   29.2560 O.3     1  UNL1        0.0000
   2982 O          23.1760  -14.8951   36.2370 O.3     1  UNL1        0.0000
   2983 O          30.3321   -9.1165   26.3232 O.3     1  UNL1        0.0000
   2984 O          25.7644   -6.0144   26.1564 O.3     1  UNL1        0.0000
   2985 H          23.9571   -9.0680   38.4748 H      49  UNL49       0.0000
   2986 H          26.0243  -10.2599   37.0234 H      49  UNL49       0.0000
   2987 C          24.7105   -9.7898   38.7661 C.2    49  UNL49       0.0000
   2988 H          28.7630  -10.4149   37.7625 H      49  UNL49       0.0000
   2989 C          25.7262  -10.3731   38.0576 C.2    49  UNL49       0.0000
   2990 H          23.9245   -8.8753   41.3578 H      49  UNL49       0.0000
   2991 N          24.7712  -10.3045   40.0500 N.pl3  49  UNL49       0.0000
   2992 C          28.8418  -11.1972   38.5275 C.3    49  UNL49       0.0000
   2993 H          29.0475  -10.7224   39.4949 H      49  UNL49       0.0000
   2994 C          23.8689   -9.9475   41.1497 C.3    49  UNL49       0.0000
   2995 N          26.3787  -11.2409   38.9171 N.pl3  49  UNL49       0.0000
   2996 H          22.8467  -10.2217   40.8821 H      49  UNL49       0.0000
   2997 H          29.6961  -11.8405   38.2752 H      49  UNL49       0.0000
   2998 C          25.7868  -11.1837   40.1245 C.3    49  UNL49       0.0000
   2999 C          27.5747  -12.0466   38.5822 C.3    49  UNL49       0.0000
   3000 H          27.3688  -12.5455   37.6274 H      49  UNL49       0.0000
   3001 H          24.1476  -10.5174   42.0367 H      49  UNL49       0.0000
   3002 H          26.0760  -11.7438   41.0058 H      49  UNL49       0.0000
   3003 H          27.6467  -12.8293   39.3462 H      49  UNL49       0.0000
   3004 TI         22.1414   16.6066   11.2464 Ti      1  UNL1        0.0000
   3005 TI         32.9719   19.4878    1.8816 Ti      1  UNL1        0.0000
   3006 TI         26.2381   12.6704    9.4264 Ti      1  UNL1        0.0000
   3007 TI         27.7493   21.8325    3.6534 Ti      1  UNL1        0.0000
   3008 TI         26.7507   23.5108    1.7490 Ti      1  UNL1        0.0000
   3009 TI         28.1263   12.4160   11.3798 Ti      1  UNL1        0.0000
   3010 TI         23.0906   14.8707    9.3549 Ti      1  UNL1        0.0000
   3011 TI         30.9841   19.7903    3.7291 Ti      1  UNL1        0.0000
   3012 H          28.7513   15.9100    8.6022 H       1  UNL1        0.0000
   3013 H          24.8106   10.1545    6.4832 H       1  UNL1        0.0000
   3014 H          29.7832   25.2330    4.6619 H      30  UNL30       0.0000
   3015 H          22.6433   20.5037   11.0269 H       1  UNL1        0.0000
   3016 H          33.7807   15.5817    2.2023 H       1  UNL1        0.0000
   3017 H          18.1815   15.8499   10.8639 H       1  UNL1        0.0000
   3018 H          36.3540   21.4921    2.0822 H       1  UNL1        0.0000
   3019 H          29.1019    8.3815   10.9939 H       1  UNL1        0.0000
   3020 H          22.6922   22.9209    2.0711 H       1  UNL1        0.0000
   3021 H          29.7245   17.4265    6.8490 H       1  UNL1        0.0000
   3022 H          25.0327   18.0582    8.4012 H       1  UNL1        0.0000
   3023 H          21.3315   12.6828    6.3606 H       1  UNL1        0.0000
   3024 H          27.2452   21.8740   -0.1241 H       1  UNL1        0.0000
   3025 H          31.0964   19.2451    0.1817 H       1  UNL1        0.0000
   3026 H          28.6362   11.7489    5.8687 H       1  UNL1        0.0000
   3027 H          26.0258   23.6695    7.2723 H       1  UNL1        0.0000
   3028 H          19.0180   18.2593    8.9990 H       1  UNL1        0.0000
   3029 H          35.7266   17.4035    4.1876 H       1  UNL1        0.0000
   3030 H          21.3191   16.8119    5.6652 H       1  UNL1        0.0000
   3031 H          23.6506   25.3387    4.1022 H       1  UNL1        0.0000
   3032 H          27.1430   26.6137    2.6045 H       1  UNL1        0.0000
   3033 H          33.6228   13.5629    3.4048 H       1  UNL1        0.0000
   3034 H          29.8419   21.5126    2.3148 H       1  UNL1        0.0000
   3035 H          25.1574   14.5188   10.7200 H       1  UNL1        0.0000
   3036 H          32.3610   14.3509    9.7694 H       1  UNL1        0.0000
   3037 H          30.8799   13.8818   10.5168 H       1  UNL1        0.0000
   3038 H          32.9352   18.7845    8.6705 H       1  UNL1        0.0000
   3039 H          32.3654   19.1431    7.0520 H       1  UNL1        0.0000
   3040 H          31.8722    9.3961    9.5794 H       1  UNL1        0.0000
   3041 H          30.5931   10.4966   10.0368 H       1  UNL1        0.0000
   3042 H          26.4220   16.2511    9.3615 H       1  UNL1        0.0000
   3043 H          26.0052   19.5799    6.6470 H       1  UNL1        0.0000
   3044 H          31.0286   23.2462    3.8665 H      30  UNL30       0.0000
   3045 H          17.2649   23.2670    4.6894 H       1  UNL1        0.0000
   3046 C          33.5499   18.7466    4.7451 C.2     1  UNL1        0.0000
   3047 C          21.1809   16.8680    8.3994 C.3     1  UNL1        0.0000
   3048 C          28.8186   11.6597    8.5017 C.3     1  UNL1        0.0000
   3049 C          25.8132   23.8030    4.6127 C.3     1  UNL1        0.0000
   3050 C          34.4459   18.1422    5.7403 C.2     1  UNL1        0.0000
   3051 C          20.2490   17.4930    7.4223 C.ar    1  UNL1        0.0000
   3052 C          29.7588   11.0453    7.5545 C.ar    1  UNL1        0.0000
   3053 C          24.9234   24.4498    5.6125 C.ar    1  UNL1        0.0000
   3054 C          34.1972   18.2171    7.1467 C.3     1  UNL1        0.0000
   3055 C          20.4654   17.3730    6.0343 C.ar    1  UNL1        0.0000
   3056 C          30.8882   10.2850    8.0076 C.ar    1  UNL1        0.0000
   3057 C          23.8286   25.2228    5.1676 C.ar    1  UNL1        0.0000
   3058 C          25.1778   24.2791    6.9674 C.ar    1  UNL1        0.0000
   3059 C          29.5111   11.1775    6.1706 C.ar    1  UNL1        0.0000
   3060 C          35.5796   17.4433    5.2646 C.3     1  UNL1        0.0000
   3061 C          19.1488   18.1854    7.9210 C.ar    1  UNL1        0.0000
   3062 C          27.9218   18.5929    6.6500 C.ar    1  UNL1        0.0000
   3063 C          26.8399   16.9046    8.5977 C.ar    1  UNL1        0.0000
   3064 C          31.4674   23.8891    4.6279 C.2    30  UNL30       0.0000
   3065 C          23.1291   11.5032    6.5220 C.ar    1  UNL1        0.0000
   3066 C          33.7617   15.6608    0.0582 C.2     1  UNL1        0.0000
   3067 C          27.2920   27.4524    0.0832 C.2     1  UNL1        0.0000
   3068 C          36.2461   21.4239   -0.0678 C.2     1  UNL1        0.0000
   3069 C          22.8878   22.9664   -0.0872 C.2     1  UNL1        0.0000
   3070 C          28.4960   19.4893    5.6180 C.3     1  UNL1        0.0000
   3071 C          23.7399   12.3950    7.5361 C.3     1  UNL1        0.0000
   3072 C          33.6258   17.1157    0.0350 C.2     1  UNL1        0.0000
   3073 C          27.1992   26.0189    0.0457 C.2     1  UNL1        0.0000
   3074 C          34.9483   20.8071   -0.0210 C.2     1  UNL1        0.0000
   3075 C          24.2901   23.3807   -0.0628 C.2     1  UNL1        0.0000
   3076 C          26.5941   18.7749    7.0816 C.ar    1  UNL1        0.0000
   3077 C          28.1597   16.7147    8.1690 C.ar    1  UNL1        0.0000
   3078 C          30.7664   25.0160    5.0759 C.2    30  UNL30       0.0000
   3079 C          23.8256   10.3652    6.0726 C.ar    1  UNL1        0.0000
   3080 C          33.8010   14.9917    1.2879 C.3     1  UNL1        0.0000
   3081 C          22.6542   21.0921   11.9408 C.ar    1  UNL1        0.0000
   3082 C          36.9014   21.6987    1.1661 C.3     1  UNL1        0.0000
   3083 C          17.6200   15.6706   11.7793 C.ar    1  UNL1        0.0000
   3084 C          32.7348   23.5888    5.1429 C.3    30  UNL30       0.0000
   3085 C          21.8532   11.7973    6.0036 C.ar    1  UNL1        0.0000
   3086 C          28.7022   17.5564    7.1974 C.ar    1  UNL1        0.0000
   3087 C          26.0567   17.9304    8.0540 C.ar    1  UNL1        0.0000
   3088 C          32.3058   14.6262   11.7938 C.3     1  UNL1        0.0000
   3089 C          22.1906   22.7359    1.1253 C.3     1  UNL1        0.0000
   3090 C          29.1435    7.8543   11.9429 C.ar    1  UNL1        0.0000
   3091 C          27.3057   28.2036    1.3125 C.3     1  UNL1        0.0000
   3092 N          27.3608   27.6047    2.5506 N.3     1  UNL1        0.0000
   3093 N          31.7267   14.4434   10.5548 N.3     1  UNL1        0.0000
   3094 N          33.1163   18.8634    7.6780 N.3     1  UNL1        0.0000
   3095 N          31.2193   10.1268    9.3250 N.pl3   1  UNL1        0.0000
   3096 O          32.3736   19.1516    5.1109 O.2     1  UNL1        0.0000
   3097 O          21.9499   15.9171    8.0011 O.3     1  UNL1        0.0000
   3098 O          29.2001   11.7842    9.7228 O.3     1  UNL1        0.0000
   3099 O          25.7473   24.2327    3.4131 O.3     1  UNL1        0.0000
   3100 O          26.5836   22.8458    4.9992 O.3     1  UNL1        0.0000
   3101 O          27.6482   12.0281    8.0962 O.3     1  UNL1        0.0000
   3102 O          33.9618   18.8273    3.5334 O.2     1  UNL1        0.0000
   3103 O          21.1388   17.3042    9.5991 O.3     1  UNL1        0.0000
   3104 O          31.2893   18.5724    2.5344 O.3     1  UNL1        0.0000
   3105 O          23.6431   16.4310   10.0994 O.3     1  UNL1        0.0000
   3106 O          32.2281   20.8597    2.9843 O.3     1  UNL1        0.0000
   3107 O          21.8909   14.7064   10.5921 O.3     1  UNL1        0.0000
   3108 O          26.4974   11.4984   10.6868 O.3     1  UNL1        0.0000
   3109 O          28.2658   23.3938    2.9149 O.3     1  UNL1        0.0000
   3110 O          27.4513   13.7599   10.2227 O.3     1  UNL1        0.0000
   3111 O          26.5596   21.6367    2.3975 O.3     1  UNL1        0.0000
   3112 O          29.7171   19.3095    5.2637 O.3     1  UNL1        0.0000
   3113 O          23.0822   13.4299    7.9143 O.3     1  UNL1        0.0000
   3114 O          28.8686   10.6442   11.9889 O.3     1  UNL1        0.0000
   3115 O          27.1161   25.3174    1.1409 O.2     1  UNL1        0.0000
   3116 O          29.6708   13.4324   11.9838 O.2     1  UNL1        0.0000
   3117 O          24.8802   23.4817    1.0808 O.2     1  UNL1        0.0000
   3118 O          24.9017   12.1004    7.9939 O.3     1  UNL1        0.0000
   3119 O          27.7542   20.4102    5.1246 O.3     1  UNL1        0.0000
   3120 O          34.4090   20.5069    1.1270 O.2     1  UNL1        0.0000
   3121 O          20.2546   16.5465   11.9148 O.3     1  UNL1        0.0000
   3122 O          33.6134   17.7526    1.1564 O.2     1  UNL1        0.0000
   3123 O          22.5228   18.3289   11.9961 O.3     1  UNL1        0.0000
   3124 O          29.4811   20.9639    3.0354 O.3     1  UNL1        0.0000
   3125 O          24.7791   13.9601   10.0165 O.3     1  UNL1        0.0000
   3126 O          31.9352   19.7388    0.1026 O.3     1  UNL1        0.0000
   3127 O          27.3675   22.8408   -0.0641 O.3     1  UNL1        0.0000
   3128 H          25.5602   19.7872   12.2543 H      50  UNL50       0.0000
   3129 H          27.6275   18.5953   10.8029 H      50  UNL50       0.0000
   3130 C          26.3136   19.0654   12.5456 C.2    50  UNL50       0.0000
   3131 H          30.3661   18.4403   11.5420 H      50  UNL50       0.0000
   3132 C          27.3294   18.4821   11.8370 C.2    50  UNL50       0.0000
   3133 H          25.5276   19.9799   15.1373 H      50  UNL50       0.0000
   3134 N          26.3744   18.5507   13.8294 N.pl3  50  UNL50       0.0000
   3135 C          30.4449   17.6580   12.3070 C.3    50  UNL50       0.0000
   3136 H          30.6506   18.1328   13.2744 H      50  UNL50       0.0000
   3137 C          25.4721   18.9077   14.9291 C.3    50  UNL50       0.0000
   3138 N          27.9818   17.6143   12.6966 N.pl3  50  UNL50       0.0000
   3139 H          24.4498   18.6336   14.6616 H      50  UNL50       0.0000
   3140 H          31.2992   17.0147   12.0546 H      50  UNL50       0.0000
   3141 C          27.3899   17.6715   13.9040 C.3    50  UNL50       0.0000
   3142 C          29.1779   16.8087   12.3617 C.3    50  UNL50       0.0000
   3143 H          28.9720   16.3097   11.4068 H      50  UNL50       0.0000
   3144 H          25.7507   18.3378   15.8161 H      50  UNL50       0.0000
   3145 H          27.6791   17.1114   14.7852 H      50  UNL50       0.0000
   3146 H          29.2498   16.0260   13.1257 H      50  UNL50       0.0000
   3147 TI         17.8289    9.3674   24.3567 Ti      1  UNL1        0.0000
   3148 TI         28.6594   12.2486   14.9919 Ti      1  UNL1        0.0000
   3149 TI         21.9256    5.4312   22.5367 Ti      1  UNL1        0.0000
   3150 TI         23.4368   14.5933   16.7637 Ti      1  UNL1        0.0000
   3151 TI         22.4382   16.2716   14.8593 Ti      1  UNL1        0.0000
   3152 TI         23.8138    5.1768   24.4901 Ti      1  UNL1        0.0000
   3153 TI         18.7781    7.6315   22.4652 Ti      1  UNL1        0.0000
   3154 TI         26.6715   12.5511   16.8393 Ti      1  UNL1        0.0000
   3155 H          24.4388    8.6708   21.7125 H       1  UNL1        0.0000
   3156 H          20.4981    2.9153   19.5935 H       1  UNL1        0.0000
   3157 H          25.4706   17.9938   17.7721 H      31  UNL31       0.0000
   3158 H          18.3308   13.2645   24.1372 H       1  UNL1        0.0000
   3159 H          29.4681    8.3425   15.3125 H       1  UNL1        0.0000
   3160 H          13.8690    8.6107   23.9742 H       1  UNL1        0.0000
   3161 H          32.0415   14.2529   15.1925 H       1  UNL1        0.0000
   3162 H          24.7894    1.1423   24.1041 H       1  UNL1        0.0000
   3163 H          18.3797   15.6817   15.1813 H       1  UNL1        0.0000
   3164 H          25.4120   10.1873   19.9593 H       1  UNL1        0.0000
   3165 H          20.7202   10.8190   21.5115 H       1  UNL1        0.0000
   3166 H          17.0190    5.4436   19.4709 H       1  UNL1        0.0000
   3167 H          22.9326   14.6348   12.9862 H       1  UNL1        0.0000
   3168 H          26.7838   12.0059   13.2919 H       1  UNL1        0.0000
   3169 H          24.3237    4.5097   18.9790 H       1  UNL1        0.0000
   3170 H          21.7133   16.4303   20.3826 H       1  UNL1        0.0000
   3171 H          14.7055   11.0201   22.1093 H       1  UNL1        0.0000
   3172 H          31.4141   10.1643   17.2979 H       1  UNL1        0.0000
   3173 H          17.0066    9.5727   18.7754 H       1  UNL1        0.0000
   3174 H          19.3381   18.0995   17.2125 H       1  UNL1        0.0000
   3175 H          22.8304   19.3745   15.7147 H       1  UNL1        0.0000
   3176 H          29.3103    6.3237   16.5150 H       1  UNL1        0.0000
   3177 H          25.5294   14.2734   15.4250 H       1  UNL1        0.0000
   3178 H          20.8449    7.2796   23.8303 H       1  UNL1        0.0000
   3179 H          28.0485    7.1117   22.8797 H       1  UNL1        0.0000
   3180 H          26.5674    6.6426   23.6271 H       1  UNL1        0.0000
   3181 H          28.6226   11.5453   21.7808 H       1  UNL1        0.0000
   3182 H          28.0529   11.9039   20.1623 H       1  UNL1        0.0000
   3183 H          27.5597    2.1569   22.6897 H       1  UNL1        0.0000
   3184 H          26.2805    3.2574   23.1471 H       1  UNL1        0.0000
   3185 H          22.1095    9.0119   22.4717 H       1  UNL1        0.0000
   3186 H          21.6926   12.3407   19.7572 H       1  UNL1        0.0000
   3187 H          26.7161   16.0070   16.9768 H      31  UNL31       0.0000
   3188 H          12.9524   16.0278   17.7996 H       1  UNL1        0.0000
   3189 C          29.2374   11.5073   17.8554 C.2     1  UNL1        0.0000
   3190 C          16.8683    9.6288   21.5096 C.3     1  UNL1        0.0000
   3191 C          24.5061    4.4205   21.6120 C.3     1  UNL1        0.0000
   3192 C          21.5006   16.5638   17.7230 C.3     1  UNL1        0.0000
   3193 C          30.1334   10.9030   18.8506 C.2     1  UNL1        0.0000
   3194 C          15.9364   10.2538   20.5326 C.ar    1  UNL1        0.0000
   3195 C          25.4463    3.8061   20.6648 C.ar    1  UNL1        0.0000
   3196 C          20.6108   17.2106   18.7228 C.ar    1  UNL1        0.0000
   3197 C          29.8846   10.9779   20.2570 C.3     1  UNL1        0.0000
   3198 C          16.1528   10.1338   19.1446 C.ar    1  UNL1        0.0000
   3199 C          26.5757    3.0458   21.1178 C.ar    1  UNL1        0.0000
   3200 C          19.5161   17.9836   18.2779 C.ar    1  UNL1        0.0000
   3201 C          20.8653   17.0399   20.0777 C.ar    1  UNL1        0.0000
   3202 C          25.1986    3.9383   19.2809 C.ar    1  UNL1        0.0000
   3203 C          31.2671   10.2040   18.3749 C.3     1  UNL1        0.0000
   3204 C          14.8363   10.9462   21.0313 C.ar    1  UNL1        0.0000
   3205 C          23.6093   11.3537   19.7603 C.ar    1  UNL1        0.0000
   3206 C          22.5274    9.6654   21.7080 C.ar    1  UNL1        0.0000
   3207 C          27.1549   16.6499   17.7381 C.2    31  UNL31       0.0000
   3208 C          18.8166    4.2640   19.6322 C.ar    1  UNL1        0.0000
   3209 C          29.4492    8.4216   13.1685 C.ar    1  UNL1        0.0000
   3210 C          22.9794   20.2132   13.1935 C.ar    1  UNL1        0.0000
   3211 C          31.9336   14.1847   13.0424 C.2     1  UNL1        0.0000
   3212 C          18.5753   15.7272   13.0231 C.ar    1  UNL1        0.0000
   3213 C          24.1835   12.2501   18.7283 C.3     1  UNL1        0.0000
   3214 C          19.4274    5.1558   20.6464 C.3     1  UNL1        0.0000
   3215 C          29.3133    9.8765   13.1453 C.3     1  UNL1        0.0000
   3216 C          22.8867   18.7797   13.1560 C.3     1  UNL1        0.0000
   3217 C          30.6358   13.5679   13.0893 C.2     1  UNL1        0.0000
   3218 C          19.9776   16.1415   13.0475 C.3     1  UNL1        0.0000
   3219 C          22.2816   11.5357   20.1919 C.ar    1  UNL1        0.0000
   3220 C          23.8471    9.4755   21.2793 C.ar    1  UNL1        0.0000
   3221 C          26.4538   17.7768   18.1862 C.2    31  UNL31       0.0000
   3222 C          19.5131    3.1260   19.1829 C.ar    1  UNL1        0.0000
   3223 C          29.4885    7.7525   14.3981 C.ar    1  UNL1        0.0000
   3224 C          18.3417   13.8529   25.0511 C.ar    1  UNL1        0.0000
   3225 C          32.5889   14.4595   14.2764 C.3     1  UNL1        0.0000
   3226 C          13.3075    8.4314   24.8896 C.ar    1  UNL1        0.0000
   3227 C          28.4223   16.3496   18.2532 C.3    31  UNL31       0.0000
   3228 C          17.5407    4.5581   19.1139 C.ar    1  UNL1        0.0000
   3229 C          24.3896   10.3172   20.3077 C.ar    1  UNL1        0.0000
   3230 C          21.7442   10.6912   21.1642 C.ar    1  UNL1        0.0000
   3231 C          27.9933    7.3870   24.9041 C.3     1  UNL1        0.0000
   3232 C          17.8781   15.4967   14.2355 C.ar    1  UNL1        0.0000
   3233 C          24.8310    0.6151   25.0532 C.ar    1  UNL1        0.0000
   3234 C          22.9932   20.9644   14.4227 C.ar    1  UNL1        0.0000
   3235 N          23.0483   20.3655   15.6609 N.pl3   1  UNL1        0.0000
   3236 N          27.4142    7.2042   23.6651 N.3     1  UNL1        0.0000
   3237 N          28.8038   11.6242   20.7883 N.3     1  UNL1        0.0000
   3238 N          26.9067    2.8876   22.4352 N.pl3   1  UNL1        0.0000
   3239 O          28.0611   11.9124   18.2212 O.2     1  UNL1        0.0000
   3240 O          17.6373    8.6779   21.1114 O.3     1  UNL1        0.0000
   3241 O          24.8875    4.5450   22.8331 O.3     1  UNL1        0.0000
   3242 O          21.4348   16.9935   16.5234 O.3     1  UNL1        0.0000
   3243 O          22.2711   15.6066   18.1095 O.3     1  UNL1        0.0000
   3244 O          23.3356    4.7889   21.2065 O.3     1  UNL1        0.0000
   3245 O          29.6493   11.5881   16.6436 O.2     1  UNL1        0.0000
   3246 O          16.8263   10.0650   22.7094 O.3     1  UNL1        0.0000
   3247 O          26.9768   11.3332   15.6446 O.3     1  UNL1        0.0000
   3248 O          19.3305    9.1918   23.2097 O.3     1  UNL1        0.0000
   3249 O          27.9155   13.6205   16.0946 O.3     1  UNL1        0.0000
   3250 O          17.5784    7.4672   23.7024 O.3     1  UNL1        0.0000
   3251 O          22.1849    4.2592   23.7971 O.3     1  UNL1        0.0000
   3252 O          23.9533   16.1546   16.0252 O.3     1  UNL1        0.0000
   3253 O          23.1388    6.5207   23.3329 O.3     1  UNL1        0.0000
   3254 O          22.2471   14.3975   15.5078 O.3     1  UNL1        0.0000
   3255 O          25.4046   12.0703   18.3740 O.3     1  UNL1        0.0000
   3256 O          18.7697    6.1907   21.0246 O.3     1  UNL1        0.0000
   3257 O          24.5561    3.4050   25.0992 O.3     1  UNL1        0.0000
   3258 O          22.8036   18.0782   14.2512 O.3     1  UNL1        0.0000
   3259 O          25.3582    6.1932   25.0940 O.2     1  UNL1        0.0000
   3260 O          20.5676   16.2425   14.1911 O.3     1  UNL1        0.0000
   3261 O          20.5892    4.8612   21.1042 O.3     1  UNL1        0.0000
   3262 O          23.4416   13.1710   18.2349 O.3     1  UNL1        0.0000
   3263 O          30.0964   13.2677   14.2373 O.2     1  UNL1        0.0000
   3264 O          15.9421    9.3073   25.0251 O.3     1  UNL1        0.0000
   3265 O          29.3009   10.5134   14.2667 O.3     1  UNL1        0.0000
   3266 O          18.2103   11.0897   25.1064 O.3     1  UNL1        0.0000
   3267 O          25.1685   13.7247   16.1457 O.3     1  UNL1        0.0000
   3268 O          20.4666    6.7209   23.1267 O.3     1  UNL1        0.0000
   3269 O          27.6227   12.4996   13.2129 O.3     1  UNL1        0.0000
   3270 O          23.0550   15.6016   13.0462 O.3     1  UNL1        0.0000
   3271 H          21.2477   12.5480   25.3645 H      51  UNL51       0.0000
   3272 H          23.3149   11.3561   23.9132 H      51  UNL51       0.0000
   3273 C          22.0011   11.8262   25.6559 C.2    51  UNL51       0.0000
   3274 H          26.0536   11.2011   24.6522 H      51  UNL51       0.0000
   3275 C          23.0168   11.2429   24.9473 C.2    51  UNL51       0.0000
   3276 H          21.2151   12.7407   28.2476 H      51  UNL51       0.0000
   3277 N          22.0618   11.3115   26.9397 N.pl3  51  UNL51       0.0000
   3278 C          26.1324   10.4188   25.4172 C.3    51  UNL51       0.0000
   3279 H          26.3381   10.8936   26.3846 H      51  UNL51       0.0000
   3280 C          21.1595   11.6685   28.0394 C.3    51  UNL51       0.0000
   3281 N          23.6693   10.3751   25.8068 N.pl3  51  UNL51       0.0000
   3282 H          20.1373   11.3944   27.7719 H      51  UNL51       0.0000
   3283 H          26.9867    9.7755   25.1649 H      51  UNL51       0.0000
   3284 C          23.0774   10.4323   27.0142 C.3    51  UNL51       0.0000
   3285 C          24.8653    9.5695   25.4720 C.3    51  UNL51       0.0000
   3286 H          24.6594    9.0705   24.5171 H      51  UNL51       0.0000
   3287 H          21.4382   11.0986   28.9264 H      51  UNL51       0.0000
   3288 H          23.3666    9.8722   27.8955 H      51  UNL51       0.0000
   3289 H          24.9373    8.7868   26.2360 H      51  UNL51       0.0000
   3290 TI         13.5163    2.1282   37.4669 Ti      1  UNL1        0.0000
   3291 TI         24.3468    5.0094   28.1021 Ti      1  UNL1        0.0000
   3292 TI         17.6130   -1.8080   35.6470 Ti      1  UNL1        0.0000
   3293 TI         19.1242    7.3541   29.8739 Ti      1  UNL1        0.0000
   3294 TI         18.1256    9.0324   27.9695 Ti      1  UNL1        0.0000
   3295 TI         19.5012   -2.0624   37.6003 Ti      1  UNL1        0.0000
   3296 TI         14.4655    0.3923   35.5755 Ti      1  UNL1        0.0000
   3297 TI         22.3590    5.3119   29.9496 Ti      1  UNL1        0.0000
   3298 H          20.1263    1.4316   34.8228 H       1  UNL1        0.0000
   3299 H          16.1855   -4.3239   32.7037 H       1  UNL1        0.0000
   3300 H          21.1581   10.7546   30.8824 H      32  UNL32       0.0000
   3301 H          14.0182    6.0253   37.2475 H      33  UNL33       0.0000
   3302 H          25.1556    1.1033   28.4228 H       1  UNL1        0.0000
   3303 H           9.5564    1.3715   37.0845 H      18  UNL18       0.0000
   3304 H          27.7290    7.0137   28.3028 H       1  UNL1        0.0000
   3305 H          20.4768   -6.0969   37.2144 H      27  UNL27       0.0000
   3306 H          14.0671    8.4425   28.2916 H       1  UNL1        0.0000
   3307 H          21.0995    2.9481   33.0695 H       1  UNL1        0.0000
   3308 H          16.4077    3.5798   34.6218 H       1  UNL1        0.0000
   3309 H          12.7064   -1.7956   32.5811 H       1  UNL1        0.0000
   3310 H          18.6201    7.3956   26.0965 H       1  UNL1        0.0000
   3311 H          22.4713    4.7667   26.4022 H       1  UNL1        0.0000
   3312 H          20.0111   -2.7295   32.0892 H       1  UNL1        0.0000
   3313 H          17.4008    9.1911   33.4929 H       1  UNL1        0.0000
   3314 H          10.3929    3.7809   35.2196 H       1  UNL1        0.0000
   3315 H          27.1016    2.9251   30.4081 H       1  UNL1        0.0000
   3316 H          12.6940    2.3335   31.8857 H       1  UNL1        0.0000
   3317 H          15.0256   10.8603   30.3228 H       1  UNL1        0.0000
   3318 H          18.5179   12.1352   28.8250 H       1  UNL1        0.0000
   3319 H          24.9978   -0.9155   29.6253 H       1  UNL1        0.0000
   3320 H          21.2168    7.0342   28.5353 H       1  UNL1        0.0000
   3321 H          16.5323    0.0404   36.9406 H       1  UNL1        0.0000
   3322 H          23.7360   -0.1275   35.9900 H      34  UNL34       0.0000
   3323 H          22.2549   -0.5966   36.7373 H      34  UNL34       0.0000
   3324 H          24.3101    4.3061   34.8911 H       1  UNL1        0.0000
   3325 H          23.7404    4.6647   33.2726 H       1  UNL1        0.0000
   3326 H          23.2472   -5.0823   35.8000 H       1  UNL1        0.0000
   3327 H          21.9680   -3.9818   36.2574 H       1  UNL1        0.0000
   3328 H          17.7970    1.7727   35.5820 H       1  UNL1        0.0000
   3329 H          17.3801    5.1015   32.8675 H       1  UNL1        0.0000
   3330 H          22.4035    8.7678   30.0871 H      32  UNL32       0.0000
   3331 H           8.6398    8.7886   30.9099 H       1  UNL1        0.0000
   3332 C          24.9249    4.2681   30.9657 C.2     1  UNL1        0.0000
   3333 C          12.5558    2.3896   34.6199 C.3     1  UNL1        0.0000
   3334 C          20.1935   -2.8187   34.7222 C.3     1  UNL1        0.0000
   3335 C          17.1881    9.3246   30.8333 C.3     1  UNL1        0.0000
   3336 C          25.8209    3.6638   31.9609 C.2     1  UNL1        0.0000
   3337 C          11.6239    3.0146   33.6429 C.ar    1  UNL1        0.0000
   3338 C          21.1337   -3.4331   33.7751 C.ar    1  UNL1        0.0000
   3339 C          16.2983    9.9714   31.8331 C.ar    1  UNL1        0.0000
   3340 C          25.5721    3.7387   33.3673 C.3     1  UNL1        0.0000
   3341 C          11.8403    2.8946   32.2548 C.ar    1  UNL1        0.0000
   3342 C          22.2632   -4.1934   34.2281 C.ar    1  UNL1        0.0000
   3343 C          15.2036   10.7444   31.3882 C.ar    1  UNL1        0.0000
   3344 C          16.5528    9.8007   33.1880 C.ar    1  UNL1        0.0000
   3345 C          20.8860   -3.3009   32.3911 C.ar    1  UNL1        0.0000
   3346 C          26.9546    2.9648   31.4851 C.3     1  UNL1        0.0000
   3347 C          10.5237    3.7070   34.1415 C.ar    1  UNL1        0.0000
   3348 C          19.2968    4.1145   32.8706 C.ar    1  UNL1        0.0000
   3349 C          18.2149    2.4262   34.8182 C.ar    1  UNL1        0.0000
   3350 C          22.8424    9.4107   30.8484 C.2    32  UNL32       0.0000
   3351 C          14.5040   -2.9752   32.7425 C.ar    1  UNL1        0.0000
   3352 C          25.1366    1.1824   26.2787 C.ar    1  UNL1        0.0000
   3353 C          18.6669   12.9740   26.3037 C.ar    1  UNL1        0.0000
   3354 C          27.6211    6.9455   26.1527 C.2     1  UNL1        0.0000
   3355 C          14.2627    8.4880   26.1333 C.ar    1  UNL1        0.0000
   3356 C          19.8709    5.0109   31.8385 C.3     1  UNL1        0.0000
   3357 C          15.1149   -2.0834   33.7567 C.3     1  UNL1        0.0000
   3358 C          25.0008    2.6373   26.2555 C.3     1  UNL1        0.0000
   3359 C          18.5741   11.5405   26.2662 C.3     1  UNL1        0.0000
   3360 C          26.3232    6.3287   26.1996 C.2     1  UNL1        0.0000
   3361 C          15.6650    8.9023   26.1578 C.3     1  UNL1        0.0000
   3362 C          17.9691    4.2965   33.3021 C.ar    1  UNL1        0.0000
   3363 C          19.5346    2.2363   34.3896 C.ar    1  UNL1        0.0000
   3364 C          22.1413   10.5376   31.2965 C.2    32  UNL32       0.0000
   3365 C          15.2005   -4.1132   32.2931 C.ar    1  UNL1        0.0000
   3366 C          25.1760    0.5133   27.5084 C.ar    1  UNL1        0.0000
   3367 C          14.0291    6.6137   38.1614 C.3    33  UNL33       0.0000
   3368 C          28.2764    7.2203   27.3867 C.3     1  UNL1        0.0000
   3369 C           8.9950    1.1922   37.9999 C.3    18  UNL18       0.0000
   3370 C          24.1097    9.1104   31.3634 C.3    32  UNL32       0.0000
   3371 C          13.2282   -2.6811   32.2242 C.ar    1  UNL1        0.0000
   3372 C          20.0771    3.0780   33.4180 C.ar    1  UNL1        0.0000
   3373 C          17.4316    3.4520   34.2745 C.ar    1  UNL1        0.0000
   3374 C          23.6807    0.1478   38.0143 C.3    34  UNL34       0.0000
   3375 C          13.5655    8.2575   27.3458 C.ar    1  UNL1        0.0000
   3376 C          20.5185   -6.6241   38.1635 C.3    27  UNL27       0.0000
   3377 C          18.6807   13.7252   27.5330 C.ar    1  UNL1        0.0000
   3378 N          18.7357   13.1263   28.7712 N.pl3   1  UNL1        0.0000
   3379 N          23.1017   -0.0350   36.7754 N.3    34  UNL34       0.0000
   3380 N          24.4912    4.3850   33.8986 N.3     1  UNL1        0.0000
   3381 N          22.5942   -4.3516   35.5455 N.pl3   1  UNL1        0.0000
   3382 O          23.7485    4.6732   31.3315 O.2     1  UNL1        0.0000
   3383 O          13.3248    1.4387   34.2216 O.3     1  UNL1        0.0000
   3384 O          20.5750   -2.6943   35.9434 O.3     1  UNL1        0.0000
   3385 O          17.1222    9.7543   29.6337 O.3     1  UNL1        0.0000
   3386 O          17.9586    8.3674   31.2197 O.3     1  UNL1        0.0000
   3387 O          19.0231   -2.4503   34.3167 O.3     1  UNL1        0.0000
   3388 O          25.3367    4.3489   29.7539 O.2     1  UNL1        0.0000
   3389 O          12.5138    2.8258   35.8196 O.3     1  UNL1        0.0000
   3390 O          22.6642    4.0940   28.7549 O.3     1  UNL1        0.0000
   3391 O          15.0180    1.9526   36.3200 O.3     1  UNL1        0.0000
   3392 O          23.6030    6.3813   29.2049 O.3     1  UNL1        0.0000
   3393 O          13.2658    0.2280   36.8127 O.3     1  UNL1        0.0000
   3394 O          17.8723   -2.9800   36.9074 O.3     1  UNL1        0.0000
   3395 O          19.6408    8.9154   29.1355 O.3     1  UNL1        0.0000
   3396 O          18.8263   -0.7185   36.4432 O.3     1  UNL1        0.0000
   3397 O          17.9345    7.1583   28.6180 O.3     1  UNL1        0.0000
   3398 O          21.0921    4.8311   31.4843 O.3     1  UNL1        0.0000
   3399 O          14.4572   -1.0485   34.1349 O.3     1  UNL1        0.0000
   3400 O          20.2436   -3.8342   38.2094 O.3     1  UNL1        0.0000
   3401 O          18.4910   10.8390   27.3614 O.3     1  UNL1        0.0000
   3402 O          21.0457   -1.0460   38.2043 O.3     1  UNL1        0.0000
   3403 O          16.2551    9.0033   27.3014 O.3     1  UNL1        0.0000
   3404 O          16.2767   -2.3780   34.2145 O.3     1  UNL1        0.0000
   3405 O          19.1291    5.9318   31.3452 O.3     1  UNL1        0.0000
   3406 O          25.7839    6.0285   27.3476 O.2     1  UNL1        0.0000
   3407 O          11.6296    2.0681   38.1354 O.3     1  UNL1        0.0000
   3408 O          24.9883    3.2742   27.3770 O.3     1  UNL1        0.0000
   3409 O          13.8978    3.8505   38.2167 O.3     1  UNL1        0.0000
   3410 O          20.8560    6.4855   29.2560 O.3     1  UNL1        0.0000
   3411 O          16.1541   -0.5183   36.2370 O.3     1  UNL1        0.0000
   3412 O          23.3101    5.2604   26.3232 O.3     1  UNL1        0.0000
   3413 O          18.7425    8.3624   26.1564 O.3     1  UNL1        0.0000
   3414 H          16.9352    5.3088   38.4748 H      52  UNL52       0.0000
   3415 H          19.0024    4.1169   37.0234 H      52  UNL52       0.0000
   3416 C          17.6886    4.5870   38.7661 C.2    52  UNL52       0.0000
   3417 H          21.7411    3.9619   37.7625 H      52  UNL52       0.0000
   3418 C          18.7043    4.0037   38.0576 C.2    52  UNL52       0.0000
   3419 H          16.9025    5.5015   41.3578 H      52  UNL52       0.0000
   3420 N          17.7493    4.0723   40.0500 N.pl3  52  UNL52       0.0000
   3421 C          21.8199    3.1796   38.5275 C.3    52  UNL52       0.0000
   3422 H          22.0255    3.6544   39.4949 H      52  UNL52       0.0000
   3423 C          16.8470    4.4293   41.1497 C.3    52  UNL52       0.0000
   3424 N          19.3567    3.1359   38.9171 N.pl3  52  UNL52       0.0000
   3425 H          15.8247    4.1552   40.8821 H      52  UNL52       0.0000
   3426 H          22.6742    2.5363   38.2752 H      52  UNL52       0.0000
   3427 C          18.7649    3.1931   40.1245 C.3    52  UNL52       0.0000
   3428 C          20.5528    2.3302   38.5822 C.3    52  UNL52       0.0000
   3429 H          20.3469    1.8313   37.6274 H      52  UNL52       0.0000
   3430 H          17.1257    3.8594   42.0367 H      52  UNL52       0.0000
   3431 H          19.0541    2.6330   41.0058 H      52  UNL52       0.0000
   3432 H          20.6248    1.5476   39.3462 H      52  UNL52       0.0000
   3433 TI         15.1195   30.9834   11.2464 Ti      1  UNL1        0.0000
   3434 TI         25.9499   33.8646    1.8816 Ti      1  UNL1        0.0000
   3435 TI         19.2162   27.0472    9.4264 Ti      1  UNL1        0.0000
   3436 TI         20.7274   36.2093    3.6534 Ti      1  UNL1        0.0000
   3437 TI         19.7288   37.8876    1.7490 Ti      1  UNL1        0.0000
   3438 TI         21.1044   26.7928   11.3798 Ti      1  UNL1        0.0000
   3439 TI         16.0687   29.2475    9.3549 Ti      1  UNL1        0.0000
   3440 TI         23.9621   34.1672    3.7291 Ti      1  UNL1        0.0000
   3441 H          21.7294   30.2868    8.6022 H       1  UNL1        0.0000
   3442 H          17.7887   24.5313    6.4832 H       1  UNL1        0.0000
   3443 H          22.7612   39.6098    4.6619 H      35  UNL35       0.0000
   3444 H          15.6213   34.8805   11.0269 H       1  UNL1        0.0000
   3445 H          26.7587   29.9585    2.2023 H       1  UNL1        0.0000
   3446 H          11.1596   30.2268   10.8639 H       1  UNL1        0.0000
   3447 H          29.3321   35.8689    2.0822 H       1  UNL1        0.0000
   3448 H          22.0800   22.7583   10.9939 H       1  UNL1        0.0000
   3449 H          15.6703   37.2977    2.0711 H       1  UNL1        0.0000
   3450 H          22.7026   31.8033    6.8490 H       1  UNL1        0.0000
   3451 H          18.0108   32.4351    8.4012 H       1  UNL1        0.0000
   3452 H          14.3096   27.0596    6.3606 H       1  UNL1        0.0000
   3453 H          20.2232   36.2508   -0.1241 H       1  UNL1        0.0000
   3454 H          24.0744   33.6219    0.1817 H       1  UNL1        0.0000
   3455 H          21.6143   26.1257    5.8687 H       1  UNL1        0.0000
   3456 H          19.0039   38.0463    7.2723 H       1  UNL1        0.0000
   3457 H          11.9961   32.6361    8.9990 H       1  UNL1        0.0000
   3458 H          28.7047   31.7803    4.1876 H       1  UNL1        0.0000
   3459 H          14.2972   31.1887    5.6652 H       1  UNL1        0.0000
   3460 H          16.6287   39.7155    4.1022 H       1  UNL1        0.0000
   3461 H          20.1210   40.9905    2.6045 H       1  UNL1        0.0000
   3462 H          26.6009   27.9397    3.4048 H       1  UNL1        0.0000
   3463 H          22.8200   35.8895    2.3148 H       1  UNL1        0.0000
   3464 H          18.1355   28.8956   10.7200 H       1  UNL1        0.0000
   3465 H          25.3391   28.7277    9.7694 H       1  UNL1        0.0000
   3466 H          23.8580   28.2586   10.5168 H       1  UNL1        0.0000
   3467 H          25.9132   33.1613    8.6705 H       1  UNL1        0.0000
   3468 H          25.3435   33.5199    7.0520 H       1  UNL1        0.0000
   3469 H          24.8503   23.7729    9.5794 H       1  UNL1        0.0000
   3470 H          23.5711   24.8734   10.0368 H       1  UNL1        0.0000
   3471 H          19.4001   30.6279    9.3615 H       1  UNL1        0.0000
   3472 H          18.9832   33.9567    6.6470 H       1  UNL1        0.0000
   3473 H          24.0067   37.6230    3.8665 H      35  UNL35       0.0000
   3474 H          10.2429   37.6438    4.6894 H      19  UNL19       0.0000
   3475 C          26.5280   33.1234    4.7451 C.2     1  UNL1        0.0000
   3476 C          14.1589   31.2448    8.3994 C.3     1  UNL1        0.0000
   3477 C          21.7967   26.0365    8.5017 C.3     1  UNL1        0.0000
   3478 C          18.7912   38.1798    4.6127 C.3     1  UNL1        0.0000
   3479 C          27.4240   32.5190    5.7403 C.2     1  UNL1        0.0000
   3480 C          13.2270   31.8698    7.4223 C.ar    1  UNL1        0.0000
   3481 C          22.7369   25.4221    7.5545 C.ar    1  UNL1        0.0000
   3482 C          17.9014   38.8266    5.6125 C.2     1  UNL1        0.0000
   3483 C          27.1752   32.5940    7.1467 C.3     1  UNL1        0.0000
   3484 C          13.4434   31.7498    6.0343 C.ar    1  UNL1        0.0000
   3485 C          23.8663   24.6618    8.0076 C.ar    1  UNL1        0.0000
   3486 C          16.8067   39.5996    5.1676 C.3     1  UNL1        0.0000
   3487 C          18.1559   38.6559    6.9674 C.2     1  UNL1        0.0000
   3488 C          22.4892   25.5543    6.1706 C.ar    1  UNL1        0.0000
   3489 C          28.5577   31.8201    5.2646 C.3     1  UNL1        0.0000
   3490 C          12.1269   32.5622    7.9210 C.ar    1  UNL1        0.0000
   3491 C          20.8999   32.9697    6.6500 C.ar    1  UNL1        0.0000
   3492 C          19.8180   31.2814    8.5977 C.ar    1  UNL1        0.0000
   3493 C          24.4455   38.2659    4.6279 C.2    35  UNL35       0.0000
   3494 C          16.1072   25.8800    6.5220 C.ar    1  UNL1        0.0000
   3495 C          26.7398   30.0376    0.0582 C.2     1  UNL1        0.0000
   3496 C          20.2700   41.8292    0.0832 C.2     1  UNL1        0.0000
   3497 C          29.2242   35.8007   -0.0678 C.2     1  UNL1        0.0000
   3498 C          15.8659   37.3432   -0.0872 C.2     1  UNL1        0.0000
   3499 C          21.4741   33.8661    5.6180 C.3     1  UNL1        0.0000
   3500 C          16.7180   26.7718    7.5361 C.3     1  UNL1        0.0000
   3501 C          26.6039   31.4925    0.0350 C.2     1  UNL1        0.0000
   3502 C          20.1773   40.3957    0.0457 C.2     1  UNL1        0.0000
   3503 C          27.9264   35.1839   -0.0210 C.2     1  UNL1        0.0000
   3504 C          17.2682   37.7575   -0.0628 C.2     1  UNL1        0.0000
   3505 C          19.5722   33.1517    7.0816 C.ar    1  UNL1        0.0000
   3506 C          21.1377   31.0915    8.1690 C.ar    1  UNL1        0.0000
   3507 C          23.7444   39.3929    5.0759 C.2    35  UNL35       0.0000
   3508 C          16.8037   24.7420    6.0726 C.ar    1  UNL1        0.0000
   3509 C          26.7791   29.3685    1.2879 C.3     1  UNL1        0.0000
   3510 C          15.6323   35.4689   11.9408 C.3     1  UNL1        0.0000
   3511 C          29.8795   36.0755    1.1661 C.3     1  UNL1        0.0000
   3512 C          10.5981   30.0474   11.7793 C.ar    1  UNL1        0.0000
   3513 C          25.7129   37.9656    5.1429 C.3    35  UNL35       0.0000
   3514 C          14.8313   26.1741    6.0036 C.ar    1  UNL1        0.0000
   3515 C          21.6802   31.9332    7.1974 C.ar    1  UNL1        0.0000
   3516 C          19.0348   32.3072    8.0540 C.ar    1  UNL1        0.0000
   3517 C          25.2838   29.0030   11.7938 C.3     1  UNL1        0.0000
   3518 C          15.1687   37.1127    1.1253 C.3     1  UNL1        0.0000
   3519 C          22.1216   22.2311   11.9429 C.ar    1  UNL1        0.0000
   3520 C          20.2838   42.5804    1.3125 C.3     1  UNL1        0.0000
   3521 N          20.3389   41.9816    2.5506 N.3     1  UNL1        0.0000
   3522 N          24.7048   28.8202   10.5548 N.3     1  UNL1        0.0000
   3523 N          26.0944   33.2402    7.6780 N.3     1  UNL1        0.0000
   3524 N          24.1973   24.5036    9.3250 N.pl3   1  UNL1        0.0000
   3525 O          25.3517   33.5285    5.1109 O.2     1  UNL1        0.0000
   3526 O          14.9279   30.2939    8.0011 O.3     1  UNL1        0.0000
   3527 O          22.1781   26.1610    9.7228 O.3     1  UNL1        0.0000
   3528 O          18.7254   38.6095    3.4131 O.3     1  UNL1        0.0000
   3529 O          19.5617   37.2226    4.9992 O.3     1  UNL1        0.0000
   3530 O          20.6262   26.4049    8.0962 O.3     1  UNL1        0.0000
   3531 O          26.9399   33.2041    3.5334 O.2     1  UNL1        0.0000
   3532 O          14.1169   31.6810    9.5991 O.3     1  UNL1        0.0000
   3533 O          24.2674   32.9492    2.5344 O.3     1  UNL1        0.0000
   3534 O          16.6211   30.8079   10.0994 O.3     1  UNL1        0.0000
   3535 O          25.2061   35.2365    2.9843 O.3     1  UNL1        0.0000
   3536 O          14.8690   29.0832   10.5921 O.3     1  UNL1        0.0000
   3537 O          19.4755   25.8752   10.6868 O.3     1  UNL1        0.0000
   3538 O          21.2439   37.7706    2.9149 O.3     1  UNL1        0.0000
   3539 O          20.4294   28.1367   10.2227 O.3     1  UNL1        0.0000
   3540 O          19.5377   36.0135    2.3975 O.3     1  UNL1        0.0000
   3541 O          22.6952   33.6863    5.2637 O.3     1  UNL1        0.0000
   3542 O          16.0603   27.8067    7.9143 O.3     1  UNL1        0.0000
   3543 O          21.8467   25.0210   11.9889 O.3     1  UNL1        0.0000
   3544 O          20.0942   39.6942    1.1409 O.2     1  UNL1        0.0000
   3545 O          22.6488   27.8092   11.9838 O.2     1  UNL1        0.0000
   3546 O          17.8582   37.8585    1.0808 O.2     1  UNL1        0.0000
   3547 O          17.8798   26.4772    7.9939 O.3     1  UNL1        0.0000
   3548 O          20.7322   34.7870    5.1246 O.3     1  UNL1        0.0000
   3549 O          27.3870   34.8837    1.1270 O.2     1  UNL1        0.0000
   3550 O          13.2327   30.9233   11.9148 O.3     1  UNL1        0.0000
   3551 O          26.5915   32.1294    1.1564 O.2     1  UNL1        0.0000
   3552 O          15.5009   32.7057   11.9961 O.2     1  UNL1        0.0000
   3553 O          22.4591   35.3407    3.0354 O.3     1  UNL1        0.0000
   3554 O          17.7572   28.3369   10.0165 O.3     1  UNL1        0.0000
   3555 O          24.9133   34.1156    0.1026 O.3     1  UNL1        0.0000
   3556 O          20.3456   37.2176   -0.0641 O.3     1  UNL1        0.0000
   3557 H          18.5383   34.1640   12.2543 H      53  UNL53       0.0000
   3558 H          20.6055   32.9722   10.8029 H      53  UNL53       0.0000
   3559 C          19.2917   33.4422   12.5456 C.2    53  UNL53       0.0000
   3560 H          23.3442   32.8171   11.5420 H      53  UNL53       0.0000
   3561 C          20.3074   32.8589   11.8370 C.2    53  UNL53       0.0000
   3562 H          18.5057   34.3567   15.1373 H      53  UNL53       0.0000
   3563 N          19.3524   32.9275   13.8294 N.pl3  53  UNL53       0.0000
   3564 C          23.4230   32.0348   12.3070 C.3    53  UNL53       0.0000
   3565 H          23.6286   32.5096   13.2744 H      53  UNL53       0.0000
   3566 C          18.4501   33.2845   14.9291 C.3    53  UNL53       0.0000
   3567 N          20.9599   31.9911   12.6966 N.pl3  53  UNL53       0.0000
   3568 H          17.4279   33.0104   14.6616 H      53  UNL53       0.0000
   3569 H          24.2773   31.3916   12.0546 H      53  UNL53       0.0000
   3570 C          20.3680   32.0483   13.9040 C.3    53  UNL53       0.0000
   3571 C          22.1559   31.1855   12.3617 C.3    53  UNL53       0.0000
   3572 H          21.9500   30.6865   11.4068 H      53  UNL53       0.0000
   3573 H          18.7288   32.7146   15.8161 H      53  UNL53       0.0000
   3574 H          20.6572   31.4882   14.7852 H      53  UNL53       0.0000
   3575 H          22.2279   30.4028   13.1257 H      53  UNL53       0.0000
   3576 TI         10.8069   23.7442   24.3567 Ti      1  UNL1        0.0000
   3577 TI         21.6374   26.6254   14.9919 Ti      1  UNL1        0.0000
   3578 TI         14.9036   19.8080   22.5367 Ti      1  UNL1        0.0000
   3579 TI         16.4148   28.9701   16.7637 Ti      1  UNL1        0.0000
   3580 TI         15.4162   30.6484   14.8593 Ti      1  UNL1        0.0000
   3581 TI         16.7918   19.5536   24.4901 Ti      1  UNL1        0.0000
   3582 TI         11.7561   22.0083   22.4652 Ti      1  UNL1        0.0000
   3583 TI         19.6496   26.9280   16.8393 Ti      1  UNL1        0.0000
   3584 H          17.4169   23.0476   21.7125 H       1  UNL1        0.0000
   3585 H          13.4761   17.2921   19.5935 H       1  UNL1        0.0000
   3586 H          18.4487   32.3706   17.7721 H      54  UNL54       0.0000
   3587 H          11.3088   27.6413   24.1372 H       1  UNL1        0.0000
   3588 H          22.4462   22.7193   15.3125 H       1  UNL1        0.0000
   3589 H           6.8470   22.9876   23.9742 H       1  UNL1        0.0000
   3590 H          25.0196   28.6297   15.1925 H       1  UNL1        0.0000
   3591 H          17.7674   15.5191   24.1041 H       1  UNL1        0.0000
   3592 H          11.3577   30.0585   15.1813 H       1  UNL1        0.0000
   3593 H          18.3901   24.5641   19.9593 H       1  UNL1        0.0000
   3594 H          13.6982   25.1959   21.5115 H       1  UNL1        0.0000
   3595 H           9.9970   19.8204   19.4709 H       1  UNL1        0.0000
   3596 H          15.9107   29.0116   12.9862 H       1  UNL1        0.0000
   3597 H          19.7619   26.3827   13.2919 H       1  UNL1        0.0000
   3598 H          17.3017   18.8865   18.9790 H       1  UNL1        0.0000
   3599 H          14.6914   30.8071   20.3826 H       1  UNL1        0.0000
   3600 H           7.6835   25.3969   22.1093 H       1  UNL1        0.0000
   3601 H          24.3922   24.5411   17.2979 H       1  UNL1        0.0000
   3602 H           9.9846   23.9495   18.7754 H       1  UNL1        0.0000
   3603 H          12.3162   32.4763   17.2125 H       1  UNL1        0.0000
   3604 H          15.8085   33.7513   15.7147 H       1  UNL1        0.0000
   3605 H          22.2884   20.7005   16.5150 H       1  UNL1        0.0000
   3606 H          18.5074   28.6502   15.4250 H       1  UNL1        0.0000
   3607 H          13.8229   21.6564   23.8303 H       1  UNL1        0.0000
   3608 H          21.0266   21.4885   22.8797 H       1  UNL1        0.0000
   3609 H          19.5454   21.0194   23.6271 H       1  UNL1        0.0000
   3610 H          21.6007   25.9221   21.7808 H       1  UNL1        0.0000
   3611 H          21.0310   26.2807   20.1623 H       1  UNL1        0.0000
   3612 H          20.5378   16.5337   22.6897 H       1  UNL1        0.0000
   3613 H          19.2586   17.6342   23.1471 H       1  UNL1        0.0000
   3614 H          15.0876   23.3887   22.4717 H       1  UNL1        0.0000
   3615 H          14.6707   26.7175   19.7572 H       1  UNL1        0.0000
   3616 H          19.6941   30.3838   16.9768 H      54  UNL54       0.0000
   3617 H           5.9304   30.4046   17.7996 H      20  UNL20       0.0000
   3618 C          22.2155   25.8842   17.8554 C.2     1  UNL1        0.0000
   3619 C           9.8464   24.0056   21.5096 C.3     1  UNL1        0.0000
   3620 C          17.4841   18.7973   21.6120 C.3     1  UNL1        0.0000
   3621 C          14.4787   30.9406   17.7230 C.3     1  UNL1        0.0000
   3622 C          23.1115   25.2798   18.8506 C.2     1  UNL1        0.0000
   3623 C           8.9145   24.6306   20.5326 C.ar    1  UNL1        0.0000
   3624 C          18.4243   18.1829   20.6648 C.ar    1  UNL1        0.0000
   3625 C          13.5889   31.5874   18.7228 C.2     1  UNL1        0.0000
   3626 C          22.8627   25.3548   20.2570 C.3     1  UNL1        0.0000
   3627 C           9.1309   24.5106   19.1446 C.ar    1  UNL1        0.0000
   3628 C          19.5538   17.4226   21.1178 C.ar    1  UNL1        0.0000
   3629 C          12.4942   32.3604   18.2779 C.3     1  UNL1        0.0000
   3630 C          13.8434   31.4167   20.0777 C.2     1  UNL1        0.0000
   3631 C          18.1766   18.3151   19.2809 C.ar    1  UNL1        0.0000
   3632 C          24.2452   24.5809   18.3749 C.3     1  UNL1        0.0000
   3633 C           7.8143   25.3230   21.0313 C.ar    1  UNL1        0.0000
   3634 C          16.5874   25.7305   19.7603 C.ar    1  UNL1        0.0000
   3635 C          15.5055   24.0422   21.7080 C.ar    1  UNL1        0.0000
   3636 C          20.1329   31.0267   17.7381 C.2    54  UNL54       0.0000
   3637 C          11.7946   18.6408   19.6322 C.ar    1  UNL1        0.0000
   3638 C          22.4272   22.7984   13.1685 C.ar    1  UNL1        0.0000
   3639 C          15.9575   34.5900   13.1935 C.2     1  UNL1        0.0000
   3640 C          24.9117   28.5615   13.0424 C.2     1  UNL1        0.0000
   3641 C          11.5533   30.1040   13.0231 C.ar    1  UNL1        0.0000
   3642 C          17.1615   26.6269   18.7283 C.3     1  UNL1        0.0000
   3643 C          12.4054   19.5326   20.6464 C.3     1  UNL1        0.0000
   3644 C          22.2914   24.2533   13.1453 C.3     1  UNL1        0.0000
   3645 C          15.8647   33.1565   13.1560 C.2     1  UNL1        0.0000
   3646 C          23.6138   27.9447   13.0893 C.2     1  UNL1        0.0000
   3647 C          12.9556   30.5183   13.0475 C.3     1  UNL1        0.0000
   3648 C          15.2597   25.9125   20.1919 C.ar    1  UNL1        0.0000
   3649 C          16.8252   23.8523   21.2793 C.ar    1  UNL1        0.0000
   3650 C          19.4319   32.1537   18.1862 C.2    54  UNL54       0.0000
   3651 C          12.4911   17.5028   19.1829 C.ar    1  UNL1        0.0000
   3652 C          22.4666   22.1293   14.3981 C.ar    1  UNL1        0.0000
   3653 C          11.3197   28.2297   25.0511 C.3     1  UNL1        0.0000
   3654 C          25.5670   28.8363   14.2764 C.3     1  UNL1        0.0000
   3655 C           6.2856   22.8082   24.8896 C.ar    1  UNL1        0.0000
   3656 C          21.4003   30.7264   18.2532 C.3    54  UNL54       0.0000
   3657 C          10.5188   18.9349   19.1139 C.ar    1  UNL1        0.0000
   3658 C          17.3677   24.6940   20.3077 C.ar    1  UNL1        0.0000
   3659 C          14.7222   25.0680   21.1642 C.ar    1  UNL1        0.0000
   3660 C          20.9713   21.7638   24.9041 C.3     1  UNL1        0.0000
   3661 C          10.8561   29.8735   14.2355 C.ar    1  UNL1        0.0000
   3662 C          17.8091   14.9919   25.0532 C.ar    1  UNL1        0.0000
   3663 C          15.9713   35.3412   14.4227 C.3     1  UNL1        0.0000
   3664 N          16.0263   34.7424   15.6609 N.3     1  UNL1        0.0000
   3665 N          20.3923   21.5810   23.6651 N.3     1  UNL1        0.0000
   3666 N          21.7818   26.0010   20.7883 N.3     1  UNL1        0.0000
   3667 N          19.8848   17.2644   22.4352 N.pl3   1  UNL1        0.0000
   3668 O          21.0391   26.2893   18.2212 O.2     1  UNL1        0.0000
   3669 O          10.6154   23.0547   21.1114 O.3     1  UNL1        0.0000
   3670 O          17.8656   18.9218   22.8331 O.3     1  UNL1        0.0000
   3671 O          14.4128   31.3703   16.5234 O.3     1  UNL1        0.0000
   3672 O          15.2492   29.9834   18.1095 O.3     1  UNL1        0.0000
   3673 O          16.3137   19.1657   21.2065 O.3     1  UNL1        0.0000
   3674 O          22.6273   25.9649   16.6436 O.2     1  UNL1        0.0000
   3675 O           9.8044   24.4418   22.7094 O.3     1  UNL1        0.0000
   3676 O          19.9548   25.7100   15.6446 O.3     1  UNL1        0.0000
   3677 O          12.3086   23.5687   23.2097 O.3     1  UNL1        0.0000
   3678 O          20.8936   27.9973   16.0946 O.3     1  UNL1        0.0000
   3679 O          10.5564   21.8440   23.7024 O.3     1  UNL1        0.0000
   3680 O          15.1629   18.6360   23.7971 O.3     1  UNL1        0.0000
   3681 O          16.9314   30.5314   16.0252 O.3     1  UNL1        0.0000
   3682 O          16.1169   20.8975   23.3329 O.3     1  UNL1        0.0000
   3683 O          15.2251   28.7743   15.5078 O.3     1  UNL1        0.0000
   3684 O          18.3827   26.4471   18.3740 O.3     1  UNL1        0.0000
   3685 O          11.7478   20.5675   21.0246 O.3     1  UNL1        0.0000
   3686 O          17.5342   17.7818   25.0992 O.3     1  UNL1        0.0000
   3687 O          15.7816   32.4550   14.2512 O.2     1  UNL1        0.0000
   3688 O          18.3363   20.5700   25.0940 O.2     1  UNL1        0.0000
   3689 O          13.5457   30.6193   14.1911 O.3     1  UNL1        0.0000
   3690 O          13.5673   19.2380   21.1042 O.3     1  UNL1        0.0000
   3691 O          16.4197   27.5478   18.2349 O.3     1  UNL1        0.0000
   3692 O          23.0745   27.6445   14.2373 O.2     1  UNL1        0.0000
   3693 O           8.9202   23.6841   25.0251 O.3     1  UNL1        0.0000
   3694 O          22.2789   24.8902   14.2667 O.3     1  UNL1        0.0000
   3695 O          11.1884   25.4665   25.1064 O.2     1  UNL1        0.0000
   3696 O          18.1466   28.1015   16.1457 O.3     1  UNL1        0.0000
   3697 O          13.4447   21.0977   23.1267 O.3     1  UNL1        0.0000
   3698 O          20.6007   26.8764   13.2129 O.3     1  UNL1        0.0000
   3699 O          16.0331   29.9784   13.0462 O.3     1  UNL1        0.0000
   3700 H          14.2258   26.9248   25.3645 H      54  UNL54       0.0000
   3701 H          16.2930   25.7330   23.9132 H      54  UNL54       0.0000
   3702 C          14.9792   26.2030   25.6559 C.2    54  UNL54       0.0000
   3703 H          19.0317   25.5779   24.6522 H      54  UNL54       0.0000
   3704 C          15.9949   25.6197   24.9473 C.2    54  UNL54       0.0000
   3705 H          14.1931   27.1175   28.2476 H      54  UNL54       0.0000
   3706 N          15.0399   25.6883   26.9397 N.pl3  54  UNL54       0.0000
   3707 C          19.1105   24.7956   25.4172 C.3    54  UNL54       0.0000
   3708 H          19.3161   25.2704   26.3846 H      54  UNL54       0.0000
   3709 C          14.1376   26.0453   28.0394 C.3    54  UNL54       0.0000
   3710 N          16.6473   24.7519   25.8068 N.pl3  54  UNL54       0.0000
   3711 H          13.1153   25.7712   27.7719 H      54  UNL54       0.0000
   3712 H          19.9647   24.1524   25.1649 H      54  UNL54       0.0000
   3713 C          16.0555   24.8091   27.0142 C.3    54  UNL54       0.0000
   3714 C          17.8434   23.9463   25.4720 C.3    54  UNL54       0.0000
   3715 H          17.6375   23.4473   24.5171 H      54  UNL54       0.0000
   3716 H          14.4163   25.4754   28.9264 H      54  UNL54       0.0000
   3717 H          16.3447   24.2490   27.8955 H      54  UNL54       0.0000
   3718 H          17.9154   23.1636   26.2360 H      54  UNL54       0.0000
   3719 TI          6.4944   16.5050   37.4669 Ti      1  UNL1        0.0000
   3720 TI         17.3249   19.3862   28.1021 Ti      1  UNL1        0.0000
   3721 TI         10.5911   12.5688   35.6470 Ti      1  UNL1        0.0000
   3722 TI         12.1023   21.7309   29.8739 Ti      1  UNL1        0.0000
   3723 TI         11.1037   23.4092   27.9695 Ti      1  UNL1        0.0000
   3724 TI         12.4793   12.3144   37.6003 Ti      1  UNL1        0.0000
   3725 TI          7.4436   14.7691   35.5755 Ti      1  UNL1        0.0000
   3726 TI         15.3371   19.6887   29.9496 Ti      1  UNL1        0.0000
   3727 H          13.1043   15.8084   34.8228 H       1  UNL1        0.0000
   3728 H           9.1636   10.0529   32.7037 H       1  UNL1        0.0000
   3729 H          14.1362   25.1314   30.8824 H      54  UNL54       0.0000
   3730 H           6.9963   20.4021   37.2475 H      54  UNL54       0.0000
   3731 H          18.1337   15.4801   28.4228 H       1  UNL1        0.0000
   3732 H           2.5345   15.7484   37.0845 H      23  UNL23       0.0000
   3733 H          20.7070   21.3905   28.3028 H       1  UNL1        0.0000
   3734 H          13.4549    8.2799   37.2144 H      33  UNL33       0.0000
   3735 H           7.0452   22.8193   28.2916 H       1  UNL1        0.0000
   3736 H          14.0775   17.3249   33.0695 H       1  UNL1        0.0000
   3737 H           9.3857   17.9566   34.6218 H       1  UNL1        0.0000
   3738 H           5.6845   12.5812   32.5811 H       1  UNL1        0.0000
   3739 H          11.5982   21.7724   26.0965 H       1  UNL1        0.0000
   3740 H          15.4494   19.1435   26.4022 H       1  UNL1        0.0000
   3741 H          12.9892   11.6473   32.0892 H       1  UNL1        0.0000
   3742 H          10.3788   23.5679   33.4929 H       1  UNL1        0.0000
   3743 H           3.3710   18.1577   35.2196 H       1  UNL1        0.0000
   3744 H          20.0796   17.3019   30.4081 H       1  UNL1        0.0000
   3745 H           5.6721   16.7103   31.8857 H       1  UNL1        0.0000
   3746 H           8.0036   25.2371   30.3228 H       1  UNL1        0.0000
   3747 H          11.4960   26.5121   28.8250 H       1  UNL1        0.0000
   3748 H          17.9758   13.4613   29.6253 H       1  UNL1        0.0000
   3749 H          14.1949   21.4110   28.5353 H       1  UNL1        0.0000
   3750 H           9.5104   14.4172   36.9406 H       1  UNL1        0.0000
   3751 H          16.7140   14.2493   35.9900 H      54  UNL54       0.0000
   3752 H          15.2329   13.7802   36.7373 H      54  UNL54       0.0000
   3753 H          17.2882   18.6829   34.8911 H       1  UNL1        0.0000
   3754 H          16.7184   19.0415   33.2726 H       1  UNL1        0.0000
   3755 H          16.2252    9.2945   35.8000 H       1  UNL1        0.0000
   3756 H          14.9461   10.3950   36.2574 H       1  UNL1        0.0000
   3757 H          10.7750   16.1495   35.5820 H       1  UNL1        0.0000
   3758 H          10.3582   19.4783   32.8675 H       1  UNL1        0.0000
   3759 H          15.3816   23.1446   30.0871 H      54  UNL54       0.0000
   3760 H           1.6179   23.1654   30.9099 H      21  UNL21       0.0000
   3761 C          17.9029   18.6450   30.9657 C.2     1  UNL1        0.0000
   3762 C           5.5339   16.7664   34.6199 C.3     1  UNL1        0.0000
   3763 C          13.1716   11.5581   34.7222 C.3     1  UNL1        0.0000
   3764 C          10.1662   23.7014   30.8333 C.3     1  UNL1        0.0000
   3765 C          18.7989   18.0406   31.9609 C.2     1  UNL1        0.0000
   3766 C           4.6020   17.3914   33.6429 C.ar    1  UNL1        0.0000
   3767 C          14.1118   10.9437   33.7751 C.ar    1  UNL1        0.0000
   3768 C           9.2764   24.3482   31.8331 C.2     1  UNL1        0.0000
   3769 C          18.5502   18.1156   33.3673 C.3     1  UNL1        0.0000
   3770 C           4.8184   17.2714   32.2548 C.ar    1  UNL1        0.0000
   3771 C          15.2413   10.1834   34.2281 C.ar    1  UNL1        0.0000
   3772 C           8.1816   25.1212   31.3882 C.3     1  UNL1        0.0000
   3773 C           9.5308   24.1775   33.1880 C.2     1  UNL1        0.0000
   3774 C          13.8641   11.0759   32.3911 C.ar    1  UNL1        0.0000
   3775 C          19.9326   17.3417   31.4851 C.3     1  UNL1        0.0000
   3776 C           3.5018   18.0838   34.1415 C.ar    1  UNL1        0.0000
   3777 C          12.2748   18.4913   32.8706 C.ar    1  UNL1        0.0000
   3778 C          11.1929   16.8030   34.8182 C.ar    1  UNL1        0.0000
   3779 C          15.8204   23.7875   30.8484 C.2    54  UNL54       0.0000
   3780 C           7.4821   11.4016   32.7425 C.ar    1  UNL1        0.0000
   3781 C          18.1147   15.5592   26.2787 C.ar    1  UNL1        0.0000
   3782 C          11.6450   27.3508   26.3037 C.2     1  UNL1        0.0000
   3783 C          20.5991   21.3223   26.1527 C.2     1  UNL1        0.0000
   3784 C           7.2408   22.8648   26.1333 C.ar    1  UNL1        0.0000
   3785 C          12.8490   19.3877   31.8385 C.3     1  UNL1        0.0000
   3786 C           8.0929   12.2934   33.7567 C.3     1  UNL1        0.0000
   3787 C          17.9788   17.0141   26.2555 C.3     1  UNL1        0.0000
   3788 C          11.5522   25.9173   26.2662 C.2     1  UNL1        0.0000
   3789 C          19.3013   20.7055   26.1996 C.2     1  UNL1        0.0000
   3790 C           8.6431   23.2791   26.1578 C.3     1  UNL1        0.0000
   3791 C          10.9471   18.6733   33.3021 C.ar    1  UNL1        0.0000
   3792 C          12.5127   16.6131   34.3896 C.ar    1  UNL1        0.0000
   3793 C          15.1194   24.9145   31.2965 C.2    54  UNL54       0.0000
   3794 C           8.1786   10.2636   32.2931 C.ar    1  UNL1        0.0000
   3795 C          18.1540   14.8901   27.5084 C.ar    1  UNL1        0.0000
   3796 C           7.0072   20.9905   38.1614 C.3    55  UNL55       0.0000
   3797 C          21.2544   21.5971   27.3867 C.3     1  UNL1        0.0000
   3798 C           1.9730   15.5690   37.9999 C.3    23  UNL23       0.0000
   3799 C          17.0878   23.4872   31.3634 C.3    54  UNL54       0.0000
   3800 C           6.2062   11.6957   32.2242 C.ar    1  UNL1        0.0000
   3801 C          13.0552   17.4548   33.4180 C.ar    1  UNL1        0.0000
   3802 C          10.4097   17.8288   34.2745 C.ar    1  UNL1        0.0000
   3803 C          16.6588   14.5246   38.0143 C.3    54  UNL54       0.0000
   3804 C           6.5436   22.6343   27.3458 C.ar    1  UNL1        0.0000
   3805 C          13.4965    7.7527   38.1635 C.3    33  UNL33       0.0000
   3806 C          11.6587   28.1020   27.5330 C.3     1  UNL1        0.0000
   3807 N          11.7138   27.5032   28.7712 N.3     1  UNL1        0.0000
   3808 N          16.0798   14.3418   36.7754 N.3    54  UNL54       0.0000
   3809 N          17.4693   18.7618   33.8986 N.3     1  UNL1        0.0000
   3810 N          15.5723   10.0252   35.5455 N.pl3   1  UNL1        0.0000
   3811 O          16.7266   19.0501   31.3315 O.2     1  UNL1        0.0000
   3812 O           6.3029   15.8155   34.2216 O.3     1  UNL1        0.0000
   3813 O          13.5531   11.6826   35.9434 O.3     1  UNL1        0.0000
   3814 O          10.1003   24.1311   29.6337 O.3     1  UNL1        0.0000
   3815 O          10.9366   22.7442   31.2197 O.3     1  UNL1        0.0000
   3816 O          12.0012   11.9265   34.3167 O.3     1  UNL1        0.0000
   3817 O          18.3148   18.7257   29.7539 O.2     1  UNL1        0.0000
   3818 O           5.4918   17.2026   35.8196 O.3     1  UNL1        0.0000
   3819 O          15.6423   18.4708   28.7549 O.3     1  UNL1        0.0000
   3820 O           7.9961   16.3294   36.3200 O.3     1  UNL1        0.0000
   3821 O          16.5811   20.7581   29.2049 O.3     1  UNL1        0.0000
   3822 O           6.2439   14.6048   36.8127 O.3     1  UNL1        0.0000
   3823 O          10.8504   11.3968   36.9074 O.3     1  UNL1        0.0000
   3824 O          12.6188   23.2922   29.1355 O.3     1  UNL1        0.0000
   3825 O          11.8043   13.6583   36.4432 O.3     1  UNL1        0.0000
   3826 O          10.9126   21.5351   28.6180 O.3     1  UNL1        0.0000
   3827 O          14.0701   19.2079   31.4843 O.3     1  UNL1        0.0000
   3828 O           7.4353   13.3283   34.1349 O.3     1  UNL1        0.0000
   3829 O          13.2216   10.5426   38.2094 O.3     1  UNL1        0.0000
   3830 O          11.4691   25.2158   27.3614 O.2     1  UNL1        0.0000
   3831 O          14.0238   13.3308   38.2043 O.3     1  UNL1        0.0000
   3832 O           9.2332   23.3801   27.3014 O.3     1  UNL1        0.0000
   3833 O           9.2547   11.9988   34.2145 O.3     1  UNL1        0.0000
   3834 O          12.1072   20.3086   31.3452 O.3     1  UNL1        0.0000
   3835 O          18.7620   20.4053   27.3476 O.2     1  UNL1        0.0000
   3836 O           4.6076   16.4449   38.1354 O.3     1  UNL1        0.0000
   3837 O          17.9664   17.6510   27.3770 O.3     1  UNL1        0.0000
   3838 O           6.8758   18.2273   38.2167 O.3     1  UNL1        0.0000
   3839 O          13.8341   20.8623   29.2560 O.3     1  UNL1        0.0000
   3840 O           9.1321   13.8585   36.2370 O.3     1  UNL1        0.0000
   3841 O          16.2882   19.6372   26.3232 O.3     1  UNL1        0.0000
   3842 O          11.7205   22.7392   26.1564 O.3     1  UNL1        0.0000
   3843 H           9.9132   19.6856   38.4748 H      54  UNL54       0.0000
   3844 H          11.9805   18.4938   37.0234 H      54  UNL54       0.0000
   3845 C          10.6666   18.9638   38.7661 C.2    54  UNL54       0.0000
   3846 H          14.7191   18.3387   37.7625 H      54  UNL54       0.0000
   3847 C          11.6824   18.3805   38.0576 C.2    54  UNL54       0.0000
   3848 H           9.8806   19.8783   41.3578 H      54  UNL54       0.0000
   3849 N          10.7274   18.4491   40.0500 N.pl3  54  UNL54       0.0000
   3850 C          14.7979   17.5564   38.5275 C.3    54  UNL54       0.0000
   3851 H          15.0036   18.0312   39.4949 H      54  UNL54       0.0000
   3852 C           9.8251   18.8061   41.1497 C.3    54  UNL54       0.0000
   3853 N          12.3348   17.5127   38.9171 N.pl3  54  UNL54       0.0000
   3854 H           8.8028   18.5320   40.8821 H      54  UNL54       0.0000
   3855 H          15.6522   16.9132   38.2752 H      54  UNL54       0.0000
   3856 C          11.7429   17.5699   40.1245 C.3    54  UNL54       0.0000
   3857 C          13.5309   16.7071   38.5822 C.3    54  UNL54       0.0000
   3858 H          13.3250   16.2081   37.6274 H      54  UNL54       0.0000
   3859 H          10.1037   18.2362   42.0367 H      54  UNL54       0.0000
   3860 H          12.0321   17.0098   41.0058 H      54  UNL54       0.0000
   3861 H          13.6028   15.9244   39.3462 H      54  UNL54       0.0000
@<TRIPOS>BOND
     1  3453  3556    1
     2  2166  2269    1
     3  1737  1840    1
     4    21   124    1
     5  2595  2698    1
     6   879   982    1
     7  3024  3127    1
     8   450   553    1
     9  1308  1411    1
    10  1353  1359    2
    11  1353  1373    1
    12   495   501    2
    13   495   515    1
    14  3498  3504    2
    15  3498  3518    1
    16    66    72    2
    17    66    86    1
    18  1782  1788    2
    19  1782  1802    1
    20  2640  2646    2
    21  2640  2660    1
    22   924   930    2
    23   924   944    1
    24  3069  3075    2
    25  3069  3089    1
    26  2211  2217    2
    27  2211  2231    1
    28  2639  2645    2
    29  2639  2653    1
    30  3068  3074    2
    31  3068  3082    1
    32  3497  3503    2
    33  3497  3511    1
    34  2210  2216    2
    35  2210  2224    1
    36  1781  1787    2
    37  1781  1795    1
    38    65    71    2
    39    65    79    1
    40   923   929    2
    41   923   937    1
    42  1352  1358    2
    43  1352  1366    1
    44   494   500    2
    45   494   508    1
    46  3127  3008    1
    47   982   863    1
    48  1840  1721    1
    49  1411  1292    1
    50  2269  2150    1
    51   124     5    1
    52  2698  2579    1
    53   553   434    1
    54  3556  3437    1
    55  2217  2259    1
    56  2646  2688    1
    57    72   114    1
    58  3075  3117    1
    59   501   543    1
    60   930   972    1
    61  3504  3546    1
    62  1359  1401    1
    63  1788  1830    1
    64    71   117    1
    65  3074  3120    1
    66  3503  3549    1
    67  2216  2262    1
    68  1787  1833    1
    69  1358  1404    1
    70   929   975    1
    71   500   546    1
    72  2645  2691    1
    73   927   921    2
    74   927   977    1
    75    69    63    2
    76    69   119    1
    77  1785  1779    2
    78  1785  1835    1
    79   498   492    2
    80   498   548    1
    81  1356  1350    2
    82  1356  1406    1
    83  3072  3066    2
    84  3072  3122    1
    85  2643  2637    2
    86  2643  2693    1
    87  3501  3495    2
    88  3501  3551    1
    89  2214  2208    2
    90  2214  2264    1
    91  1357  1351    2
    92  1357  1399    1
    93  2644  2638    2
    94  2644  2686    1
    95  1786  1780    2
    96  1786  1828    1
    97   499   493    2
    98   499   541    1
    99  3073  3067    2
   100  3073  3115    1
   101  3502  3496    2
   102  3502  3544    1
   103  2215  2209    2
   104  2215  2257    1
   105    70    64    2
   106    70   112    1
   107   928   922    2
   108   928   970    1
   109  2637  2651    1
   110  3066  3080    1
   111  3495  3509    1
   112   492   506    1
   113  2208  2222    1
   114  1350  1364    1
   115  1779  1793    1
   116   921   935    1
   117    63    77    1
   118  1351  1375    1
   119   493   517    1
   120   922   946    1
   121    64    88    1
   122  2209  2233    1
   123  3496  3520    1
   124  2638  2662    1
   125  3067  3091    1
   126  1780  1804    1
   127   123    22    1
   128   123     2    1
   129  2268  2167    1
   130  2268  2147    1
   131  1410  1309    1
   132  1410  1289    1
   133  2697  2596    1
   134  2697  2576    1
   135   552   451    1
   136   552   431    1
   137  1839  1738    1
   138  1839  1718    1
   139  3126  3025    1
   140  3126  3005    1
   141  3555  3454    1
   142  3555  3434    1
   143   981   880    1
   144   981   860    1
   145  2259  2150    1
   146  3117  3008    1
   147  2688  2579    1
   148  1830  1721    1
   149  1401  1292    1
   150  3546  3437    1
   151   114     5    1
   152   972   863    1
   153   543   434    1
   154  3089  1795    1
   155  3089  3020    1
   156  2231   937    1
   157  2231  2162    1
   158   515   446    1
   159   944   875    1
   160  1373    79    1
   161  1373  1304    1
   162  3518  2224    1
   163  3518  3449    1
   164  1802   508    1
   165  1802  1733    1
   166    86    17    1
   167  2660  1366    1
   168  2660  2591    1
   169   546   431    1
   170  2262  2147    1
   171  3120  3005    1
   172  1833  1718    1
   173  2691  2576    1
   174  1404  1289    1
   175   117     2    1
   176  3549  3434    1
   177   975   860    1
   178  3544  3437    1
   179  1828  1721    1
   180   970   863    1
   181   541   434    1
   182  2257  2150    1
   183   112     5    1
   184  1399  1292    1
   185  2686  2579    1
   186  3115  3008    1
   187  1406  1289    1
   188  3551  3434    1
   189   119     2    1
   190  2264  2147    1
   191  2693  2576    1
   192  1835  1718    1
   193   977   860    1
   194  3122  3005    1
   195   548   431    1
   196  3082  3018    1
   197  3511  3447    1
   198  2224  2160    1
   199   937   873    1
   200  1366  1302    1
   201  2653  2589    1
   202  1795  1731    1
   203    79    15    1
   204   508   444    1
   205  3080  2662    1
   206  3080  3016    1
   207  3509  3091    1
   208  3509  3445    1
   209  1364  1300    1
   210    77    13    1
   211  1793  1375    1
   212  1793  1729    1
   213   506    88    1
   214   506   442    1
   215   935   517    1
   216   935   871    1
   217  2651  2587    1
   218  2222  1804    1
   219  2222  2158    1
   220   946   947    1
   221  3520  3521    1
   222    88    89    1
   223  3091  3092    1
   224  2233  2234    1
   225  1804  1805    1
   226  2662  2663    1
   227   517   518    1
   228  1375  1376    1
   229  2150  2253    1
   230  2150  2251    1
   231  2150  2241    1
   232  1721  1824    1
   233  1721  1822    1
   234  1721  1812    1
   235   863   966    1
   236   863   964    1
   237   863   954    1
   238  3437  3540    1
   239  3437  3538    1
   240  3437  3528    1
   241  3008  3111    1
   242  3008  3109    1
   243  3008  3099    1
   244     5   108    1
   245     5   106    1
   246     5    96    1
   247  1292  1395    1
   248  1292  1393    1
   249  1292  1383    1
   250  2579  2682    1
   251  2579  2680    1
   252  2579  2670    1
   253   434   537    1
   254   434   535    1
   255   434   525    1
   256   860   959    1
   257   860   961    1
   258   860   957    1
   259  1289  1388    1
   260  1289  1390    1
   261  1289  1386    1
   262     2   101    1
   263     2   103    1
   264     2    99    1
   265  1718  1817    1
   266  1718  1819    1
   267  1718  1815    1
   268  3434  3533    1
   269  3434  3535    1
   270  3434  3531    1
   271  2147  2246    1
   272  2147  2248    1
   273  2147  2244    1
   274  2576  2675    1
   275  2576  2677    1
   276  2576  2673    1
   277   431   530    1
   278   431   532    1
   279   431   528    1
   280  3005  3104    1
   281  3005  3106    1
   282  3005  3102    1
   283  3463  3553    1
   284  1747  1837    1
   285   889   979    1
   286    31   121    1
   287  3034  3124    1
   288  2176  2266    1
   289  2605  2695    1
   290  1318  1408    1
   291   460   550    1
   292   966   862    1
   293   537   433    1
   294  3111  3007    1
   295  2682  2578    1
   296  3540  3436    1
   297   108     4    1
   298  2253  2149    1
   299  1395  1291    1
   300  1824  1720    1
   301   530   437    1
   302   959   866    1
   303  2246  2153    1
   304  3533  3440    1
   305  2675  2582    1
   306  1388  1295    1
   307   101     8    1
   308  3104  3011    1
   309  1817  1724    1
   310  3092  3032    1
   311  3092  3462    1
   312   947   887    1
   313  2663  2603    1
   314  2663  3033    1
   315  1805  1745    1
   316  1805  2175    1
   317    89    29    1
   318    89   459    1
   319  3521  3461    1
   320  2234  2174    1
   321   518   458    1
   322   518   888    1
   323  1376  1316    1
   324  1376  1746    1
   325  3109  3007    1
   326   106     4    1
   327  1822  1720    1
   328   964   862    1
   329   535   433    1
   330  2251  2149    1
   331  2680  2578    1
   332  3538  3436    1
   333  1393  1291    1
   334  2248  2153    1
   335   532   437    1
   336  1819  1724    1
   337  2677  2582    1
   338   103     8    1
   339  3106  3011    1
   340   961   866    1
   341  3535  3440    1
   342  1390  1295    1
   343  3124  3011    1
   344   979   866    1
   345  1408  1295    1
   346  1837  1724    1
   347  2695  2582    1
   348   550   437    1
   349   121     8    1
   350  3553  3440    1
   351  2266  2153    1
   352  2241  2191    1
   353  3099  3049    1
   354    96    46    1
   355  1812  1762    1
   356  3528  3478    1
   357  1383  1333    1
   358   954   904    1
   359  2670  2620    1
   360   525   475    1
   361  3531  3475    1
   362  2244  2188    1
   363  1386  1330    1
   364   528   472    1
   365  2673  2617    1
   366    99    43    1
   367  1815  1759    1
   368   957   901    1
   369  3102  3046    1
   370  1291  1384    1
   371  1291  1403    1
   372   862   955    1
   373   862   974    1
   374   433   526    1
   375   433   545    1
   376  2578  2671    1
   377  2578  2690    1
   378  1720  1813    1
   379  1720  1832    1
   380     4    97    1
   381     4   116    1
   382  3436  3529    1
   383  3436  3548    1
   384  2149  2242    1
   385  2149  2261    1
   386  3007  3100    1
   387  3007  3119    1
   388  3011  3096    1
   389  3011  3112    1
   390   866   951    1
   391   866   967    1
   392  1724  1809    1
   393  1724  1825    1
   394  2153  2238    1
   395  2153  2254    1
   396  2582  2667    1
   397  2582  2683    1
   398     8    93    1
   399     8   109    1
   400  3440  3525    1
   401  3440  3541    1
   402   437   522    1
   403   437   538    1
   404  1295  1380    1
   405  1295  1396    1
   406  1328  1348    1
   407  3473  3493    1
   408   470   490    1
   409  3044  3064    1
   410  2186  2206    1
   411  2615  2635    1
   412    41    61    1
   413   899   919    1
   414  1757  1777    1
   415  3460  3486    1
   416  3031  3057    1
   417  2602  2628    1
   418    28    54    1
   419  1744  1770    1
   420   457   483    1
   421   886   912    1
   422  2173  2199    1
   423  1315  1341    1
   424  2171  2202    1
   425  2600  2631    1
   426  1313  1344    1
   427    26    57    1
   428   884   915    1
   429   455   486    1
   430  1742  1773    1
   431  3458  3489    1
   432  3029  3060    1
   433  2620  2671    1
   434  2620  2624    1
   435   475   526    1
   436   475   479    1
   437  3049  3100    1
   438  3049  3053    1
   439    46    97    1
   440    46    50    1
   441   904   955    1
   442   904   908    1
   443  1762  1813    1
   444  1762  1766    1
   445  3478  3529    1
   446  3478  3482    1
   447  2191  2242    1
   448  2191  2195    1
   449  1333  1384    1
   450  1333  1337    1
   451  1348  1362   ar
   452  1348  1368   ar
   453  2206  2220    2
   454  2206  2226    1
   455  2635  2649    2
   456  2635  2655    1
   457  1777  1791   ar
   458  1777  1797   ar
   459   919   933    2
   460   919   939    1
   461    61    75   ar
   462    61    81   ar
   463  3064  3078    2
   464  3064  3084    1
   465   490   504   ar
   466   490   510   ar
   467  3493  3507    2
   468  3493  3513    1
   469  1727  1791    1
   470  2156  2220    1
   471  3443  3507    1
   472   440   504    1
   473   869   933    1
   474    11    75    1
   475  3014  3078    1
   476  1298  1362    1
   477  2585  2649    1
   478  2616  1368    1
   479  3045  1797    1
   480  1758   510    1
   481  2187   939    1
   482  3474  2226    1
   483  1329    81    1
   484  1759  1809    1
   485  1759  1763    1
   486  2617  2667    1
   487  2617  2621    2
   488  3475  3525    1
   489  3475  3479    2
   490    43    93    1
   491    43    47    1
   492  1330  1380    1
   493  1330  1334    1
   494   472   522    1
   495   472   476    1
   496  3046  3096    1
   497  3046  3050    2
   498  2188  2238    1
   499  2188  2192    1
   500   901   951    1
   501   901   905    1
   502    75  1798   ar
   503  1791  3514   ar
   504  1362  3085   ar
   505   504  2227   ar
   506  2690  2641    1
   507   545   496    1
   508  3119  3070    1
   509  1403  1354    1
   510   974   925    1
   511  1832  1783    1
   512  2261  2212    1
   513  3548  3499    1
   514   116    67    1
   515    81  1792   ar
   516   510  2221   ar
   517  1368  3079   ar
   518  1797  3508   ar
   519   483   479   ar
   520   483   914   ar
   521  2628  2624   ar
   522  2628  3059   ar
   523  1341  1337   ar
   524  1341  1772   ar
   525  3486  3482    1
   526  1770  1766   ar
   527  1770  2201   ar
   528    54    50   ar
   529    54   485   ar
   530   912   908    1
   531  3057  3053   ar
   532  3057  3488   ar
   533  2199  2195    1
   534   538   496    1
   535  2683  2641    1
   536  1396  1354    1
   537   109    67    1
   538  1825  1783    1
   539   967   925    1
   540  2254  2212    1
   541  3541  3499    1
   542  3112  3070    1
   543  3489  3479    1
   544  1344  1334   ar
   545  1344  2626   ar
   546  3060  3050    1
   547  1773  1763   ar
   548  1773  3055   ar
   549    57    47   ar
   550    57  1339   ar
   551   486   476   ar
   552   486  1768   ar
   553  2202  2192   ar
   554  2202  3484   ar
   555  2631  2621    1
   556   915   905   ar
   557   915  2197   ar
   558  1337  1342   ar
   559   908   913    2
   560  2195  2200    2
   561  3053  3058   ar
   562  3482  3487    2
   563  1766  1771   ar
   564  2624  2629   ar
   565    50    55   ar
   566   479   484   ar
   567  2641  2633    1
   568  1783  1775    1
   569  2212  2204    1
   570   496   488    1
   571  3070  3062    1
   572    67    59    1
   573   925   917    1
   574  3499  3491    1
   575  1354  1346    1
   576   456   481    1
   577  1314  1339    1
   578   885   910    1
   579  2172  2197    1
   580  3030  3055    1
   581  1743  1768    1
   582  2601  2626    1
   583  3459  3484    1
   584    27    52    1
   585  1763  1767   ar
   586  2192  2196   ar
   587  3050  3054    1
   588  3479  3483    1
   589  1334  1338   ar
   590  2621  2625    1
   591   476   480   ar
   592    47    51   ar
   593   905   909   ar
   594  1310  1343    1
   595    23    56    1
   596   452   485    1
   597   881   914    1
   598  2597  2630    1
   599  3455  3488    1
   600  3026  3059    1
   601  2168  2201    1
   602  1739  1772    1
   603   940   878    1
   604   940   920    1
   605  1369  1307    1
   606  1369  1349    1
   607  2227  2165    1
   608  2227  2207   ar
   609  2656  2594    1
   610  2656  2636    1
   611  1798  1736    1
   612  1798  1778   ar
   613   511   449    1
   614   511   491    1
   615  3514  3452    1
   616  3514  3494   ar
   617  3085  3023    1
   618  3085  3065   ar
   619    82    20    1
   620    82    62    1
   621   481   477    1
   622  1768  1764   ar
   623  3055  3051   ar
   624  3484  3480   ar
   625    52    48    1
   626   910   906    1
   627  2197  2193   ar
   628  1339  1335   ar
   629  2626  2622   ar
   630   934   868    1
   631   934   920    1
   632    76    10    1
   633    76    62    1
   634  2650  2584    1
   635  2650  2636    1
   636  1363  1297    1
   637  1363  1349    1
   638  2221  2155    1
   639  2221  2207   ar
   640  1792  1726    1
   641  1792  1778   ar
   642  3079  3013    1
   643  3079  3065   ar
   644  3508  3442    1
   645  3508  3494   ar
   646   505   439    1
   647   505   491    1
   648  1343  1336    1
   649  1772  1765   ar
   650  3059  3052   ar
   651  3488  3481   ar
   652  2630  2623    1
   653   914   907   ar
   654  2201  2194   ar
   655    56    49    1
   656   485   478   ar
   657  3065  3071    1
   658    62    68    2
   659  1778  1784    1
   660   491   497    2
   661  2636  2642    2
   662   920   926    2
   663  2207  2213    1
   664  1349  1355    2
   665  3494  3500    1
   666  2185  2218    1
   667   469   502    1
   668  3043  3076    1
   669  3472  3505    1
   670  1327  1360    1
   671  1756  1789    1
   672  2614  2647    1
   673    40    73    1
   674   898   931    1
   675   488   502   ar
   676   488   512   ar
   677  2633  2647   ar
   678  2633  2657   ar
   679   917   931   ar
   680   917   941   ar
   681  3062  3076   ar
   682  3062  3086   ar
   683  2204  2218   ar
   684  2204  2228   ar
   685    59    73   ar
   686    59    83   ar
   687  1775  1789   ar
   688  1775  1799   ar
   689  3491  3505   ar
   690  3491  3515   ar
   691  1346  1360   ar
   692  1346  1370   ar
   693   876   941    1
   694   447   512    1
   695  2163  2228    1
   696  3021  3086    1
   697  3450  3515    1
   698  1734  1799    1
   699  1305  1370    1
   700  2592  2657    1
   701    18    83    1
   702  3487  3456    1
   703   484   453    1
   704   484   911   ar
   705  2629  2598    1
   706  2629  3056   ar
   707  1342  1311    1
   708  1342  1769   ar
   709  1771  1740    1
   710  1771  2198   ar
   711  2200  2169    1
   712  3058  3027    1
   713  3058  3485   ar
   714    55    24    1
   715    55   482   ar
   716   913   882    1
   717    36    91    1
   718   465   520    1
   719   894   949    1
   720  2181  2236    1
   721  2610  2665    1
   722  1752  1807    1
   723  3039  3094    1
   724  1323  1378    1
   725  3468  3523    1
   726  3505  3516   ar
   727  3076  3087   ar
   728  1360  1371   ar
   729    73    84   ar
   730  2218  2229   ar
   731  2647  2658   ar
   732   502   513   ar
   733   931   942   ar
   734  1789  1800   ar
   735  3483  3523    1
   736  2625  2665    1
   737  3054  3094    1
   738   909   949    1
   739   909  2203   ar
   740   480   520    1
   741   480  1774   ar
   742  2196  2236    1
   743  2196  3490   ar
   744  1338  1378    1
   745  1338  2632   ar
   746    51    91    1
   747    51  1345   ar
   748  1767  1807    1
   749  1767  3061   ar
   750  1799  1790   ar
   751  2657  2648   ar
   752  1370  1361   ar
   753  3086  3077   ar
   754    83    74   ar
   755  2228  2219   ar
   756  3515  3506   ar
   757   512   503   ar
   758   941   932   ar
   759   906   916    2
   760   906   902    1
   761    48    58    2
   762    48    44    1
   763   477   487    2
   764   477   473    1
   765  1764  1774   ar
   766  1764  1760    1
   767  2193  2203   ar
   768  2193  2189    1
   769  3051  3061   ar
   770  3051  3047    1
   771  2622  2632   ar
   772  2622  2618    1
   773  1335  1345   ar
   774  1335  1331    1
   775  3480  3490   ar
   776  3480  3476    1
   777  1355  1397    1
   778  1355  1402    1
   779  3500  3542    1
   780  3500  3547    1
   781   926   968    1
   782   926   973    1
   783   497   539    1
   784   497   544    1
   785    68   110    1
   786    68   115    1
   787  3071  3113    1
   788  3071  3118    1
   789  2213  2255    1
   790  2213  2260    1
   791  2642  2684    1
   792  2642  2689    1
   793  1784  1826    1
   794  1784  1831    1
   795  2194  2198   ar
   796  2194  2190    1
   797   478   482   ar
   798   478   474    1
   799    49    53    2
   800    49    45    1
   801  1765  1769   ar
   802  1765  1761    1
   803   907   911   ar
   804   907   903    1
   805  2623  2627    2
   806  2623  2619    1
   807  1336  1340    2
   808  1336  1332    1
   809  3052  3056   ar
   810  3052  3048    1
   811  3481  3485   ar
   812  3481  3477    1
   813    91    35    1
   814   520   464    1
   815  3523  3467    1
   816  2665  2609    1
   817   949   893    1
   818  2236  2180    1
   819  3094  3038    1
   820  1378  1322    1
   821  1807  1751    1
   822  3542  3439    1
   823  2255  2152    1
   824  1826  1723    1
   825   539   436    1
   826  2684  2581    1
   827   968   865    1
   828   110     7    1
   829  3113  3010    1
   830  1397  1294    1
   831   916   883    1
   832  1345  1312    1
   833  1774  1741    1
   834  3490  3457    1
   835   487   454    1
   836  2203  2170    1
   837  3061  3028    1
   838  2632  2599    1
   839    58    25    1
   840   973   861    1
   841  3547  3435    1
   842   115     3    1
   843   544   432    1
   844  3118  3006    1
   845  1831  1719    1
   846  2689  2577    1
   847  1402  1290    1
   848  2260  2148    1
   849  3097  3047    1
   850  3097  3010    1
   851  1381  1331    1
   852  1381  1294    1
   853  2239  2189    1
   854  2239  2152    1
   855   523   473    1
   856   523   436    1
   857    94    44    1
   858    94     7    1
   859  3526  3476    1
   860  3526  3439    1
   861  2668  2618    1
   862  2668  2581    1
   863  1810  1760    1
   864  1810  1723    1
   865   952   902    1
   866   952   865    1
   867    53    92    1
   868  2627  2666    1
   869  3056  3095    1
   870  2198  2237    1
   871   911   950    1
   872  1769  1808    1
   873  1340  1379    1
   874  3485  3524    1
   875   482   521    1
   876  2229  2164    1
   877  2229  2205   ar
   878   942   877    1
   879   942   918   ar
   880  3516  3451    1
   881  3516  3492   ar
   882    84    19    1
   883    84    60   ar
   884  1800  1735    1
   885  1800  1776   ar
   886  2658  2593    1
   887  2658  2634   ar
   888   513   448    1
   889   513   489   ar
   890  1371  1306    1
   891  1371  1347   ar
   892  3087  3022    1
   893  3087  3063   ar
   894  1814  1761    1
   895  1814  1719    1
   896  3530  3477    1
   897  3530  3435    1
   898   527   474    1
   899   527   432    1
   900    98    45    1
   901    98     3    1
   902  2672  2619    1
   903  2672  2577    1
   904   956   903    1
   905   956   861    1
   906  2243  2190    1
   907  2243  2148    1
   908  1385  1332    1
   909  1385  1290    1
   910  3101  3048    1
   911  3101  3006    1
   912  3506  3492   ar
   913  3506  3441    1
   914  2219  2205   ar
   915  2219  2154    1
   916   932   918   ar
   917   932   867    1
   918    74    60   ar
   919    74     9    1
   920  1790  1776   ar
   921  1790  1725    1
   922   503   489   ar
   923   503   438    1
   924  1361  1347   ar
   925  1361  1296    1
   926  3077  3063   ar
   927  3077  3012    1
   928  2648  2634   ar
   929  2648  2583    1
   930  2618  2674    1
   931  2189  2245    1
   932    44   100    1
   933   902   958    1
   934   473   529    1
   935  1331  1387    1
   936  3476  3532    1
   937  1760  1816    1
   938  3047  3103    1
   939   903   953    1
   940  2619  2669    1
   941  3048  3098    1
   942  3477  3527    1
   943  1332  1382    1
   944  1761  1811    1
   945    45    95    1
   946  2190  2240    1
   947   474   524    1
   948  2634  2613    1
   949  3063  3042    1
   950  1347  1326    1
   951  1776  1755    1
   952   489   468    1
   953  2205  2184    1
   954  3492  3471    1
   955    60    39    1
   956   918   897    1
   957  3095  3040    1
   958  3095  3041    1
   959  2237  2182    1
   960  2237  2183    1
   961    92    37    1
   962    92    38    1
   963  3524  3469    1
   964  3524  3470    1
   965  1379  1324    1
   966  1379  1325    1
   967  2666  2611    1
   968  2666  2612    1
   969  1808  1753    1
   970  1808  1754    1
   971   521   466    1
   972   521   467    1
   973   950   895    1
   974   950   896    1
   975  1723  1838    1
   976  1723  1818    1
   977  1723  1820    1
   978  2152  2267    1
   979  2152  2247    1
   980  2152  2249    1
   981  3010  3125    1
   982  3010  3105    1
   983  3010  3107    1
   984   865   980    1
   985   865   960    1
   986   865   962    1
   987     7   122    1
   988     7   102    1
   989     7   104    1
   990   436   551    1
   991   436   531    1
   992   436   533    1
   993  2581  2696    1
   994  2581  2676    1
   995  2581  2678    1
   996  3439  3554    1
   997  3439  3534    1
   998  3439  3536    1
   999  1294  1409    1
  1000  1294  1389    1
  1001  1294  1391    1
  1002  2577  2681    1
  1003  2577  2679    1
  1004  3435  3539    1
  1005  3435  3537    1
  1006  2148  2252    1
  1007  2148  2250    1
  1008  1719  1823    1
  1009  1719  1821    1
  1010   432   536    1
  1011   432   534    1
  1012  1290  1394    1
  1013  1290  1392    1
  1014  3006  3110    1
  1015  3006  3108    1
  1016     3   107    1
  1017     3   105    1
  1018   861   965    1
  1019   861   963    1
  1020  3532  3433    1
  1021  2245  2146    1
  1022  1816  1717    1
  1023  3103  3004    1
  1024   958   859    1
  1025   100     1    1
  1026  2674  2575    1
  1027  1387  1288    1
  1028   529   430    1
  1029  1382  1293    1
  1030  3527  3438    1
  1031    95     6    1
  1032  3098  3009    1
  1033  2240  2151    1
  1034  1811  1722    1
  1035   524   435    1
  1036   953   864    1
  1037  2669  2580    1
  1038  3036  3093    1
  1039  2607  2664    1
  1040   891   948    1
  1041    33    90    1
  1042  2178  2235    1
  1043  3465  3522    1
  1044  1320  1377    1
  1045  1749  1806    1
  1046   462   519    1
  1047   980   890    1
  1048  2696  2606    1
  1049  3554  3464    1
  1050   122    32    1
  1051  2267  2177    1
  1052   551   461    1
  1053  1838  1748    1
  1054  1409  1319    1
  1055  3125  3035    1
  1056  1818  1717    1
  1057  2676  2575    1
  1058  1389  1288    1
  1059   960   859    1
  1060  2247  2146    1
  1061  3105  3004    1
  1062   531   430    1
  1063  3534  3433    1
  1064   102     1    1
  1065  2681  2580    1
  1066  3110  3009    1
  1067   107     6    1
  1068  1394  1293    1
  1069  2252  2151    1
  1070  1823  1722    1
  1071   536   435    1
  1072   965   864    1
  1073  3539  3438    1
  1074  3466  3522    1
  1075  2608  2664    1
  1076  1750  1806    1
  1077   892   948    1
  1078  3037  3093    1
  1079   463   519    1
  1080  1321  1377    1
  1081    34    90    1
  1082  2179  2235    1
  1083   948   943    1
  1084  3522  3517    1
  1085  2235  2230    1
  1086    90    85    1
  1087  1377  1372    1
  1088  2664  2659    1
  1089  1806  1801    1
  1090  3093  3088    1
  1091   519   514    1
  1092  1391  1288    1
  1093  1820  1717    1
  1094  3536  3433    1
  1095  3107  3004    1
  1096   104     1    1
  1097  2249  2146    1
  1098   962   859    1
  1099   533   430    1
  1100  2678  2575    1
  1101   963   864    1
  1102  3108  3009    1
  1103  1821  1722    1
  1104   105     6    1
  1105  3537  3438    1
  1106  2679  2580    1
  1107   534   435    1
  1108  2250  2151    1
  1109  1392  1293    1
  1110  2700  2703    1
  1111   126   129    1
  1112  2271  2274    1
  1113  1413  1416    1
  1114  3129  3132    1
  1115  1842  1845    1
  1116   555   558    1
  1117  3558  3561    1
  1118   984   987    1
  1119  2588  2654    1
  1120  1730  1796    1
  1121  3446  3512    1
  1122   443   509    1
  1123  2159  2225    1
  1124  1301  1367    1
  1125  3017  3083    1
  1126    14    80    1
  1127   872   938    1
  1128   874   945    1
  1129  3019  3090    1
  1130  3448  3519    1
  1131  1732  1803    1
  1132  1303  1374    1
  1133   445   516    1
  1134    16    87    1
  1135  2161  2232    1
  1136  2590  2661    1
  1137  1728  1794    1
  1138    12    78    1
  1139   441   507    1
  1140   870   936    1
  1141  1299  1365    1
  1142  3015  3081    1
  1143  2586  2652    1
  1144  2157  2223    1
  1145  3444  3510    1
  1146  3433  3550    1
  1147  3433  3552    1
  1148  2146  2263    1
  1149  2146  2265    1
  1150     1   118    1
  1151     1   120    1
  1152   859   976    1
  1153   859   978    1
  1154  1288  1405    1
  1155  1288  1407    1
  1156  3004  3121    1
  1157  3004  3123    1
  1158  1717  1834    1
  1159  1717  1836    1
  1160   430   547    1
  1161   430   549    1
  1162  2575  2692    1
  1163  2575  2694    1
  1164   864   971    1
  1165   864   969    1
  1166   864  1124    1
  1167  2151  2258    1
  1168  2151  2256    1
  1169  2151  2411    1
  1170  3009  3116    1
  1171  3009  3114    1
  1172  3009  3269    1
  1173  1293  1400    1
  1174  1293  1398    1
  1175  1293  1553    1
  1176  2580  2687    1
  1177  2580  2685    1
  1178  2580  2840    1
  1179  3438  3545    1
  1180  3438  3543    1
  1181  3438  3698    1
  1182   435   542    1
  1183   435   540    1
  1184   435   695    1
  1185  1722  1829    1
  1186  1722  1827    1
  1187  1722  1982    1
  1188     6   113    1
  1189     6   111    1
  1190     6   266    1
  1191  1427  1426    1
  1192  2285  2284    1
  1193   569   568    1
  1194  2714  2713    1
  1195  1856  1855    1
  1196  3572  3571    1
  1197   998   997    1
  1198  3143  3142    1
  1199   140   139    1
  1200   557   561    1
  1201  2702  2706    1
  1202  3560  3564    1
  1203   128   132    1
  1204  1844  1848    1
  1205  2273  2277    1
  1206   986   990    1
  1207  1415  1419    1
  1208  3131  3135    1
  1209  3083  1801   ar
  1210  3083  3212   ar
  1211  3512  2230   ar
  1212  3512  3641   ar
  1213   938  1067    1
  1214   509   638    1
  1215  1796   514   ar
  1216  1796  1925   ar
  1217    80   209    1
  1218  1367    85   ar
  1219  1367  1496   ar
  1220  2654  1372   ar
  1221  2654  2783   ar
  1222  2225   943   ar
  1223  2225  2354   ar
  1224   943  1066   ar
  1225  3088  3211    1
  1226   514   637   ar
  1227  1801  1924   ar
  1228  2230  2353   ar
  1229  3517  3640    1
  1230    85   208   ar
  1231  2659  2782    1
  1232  1372  1495   ar
  1233   129   127    2
  1234   129   135    1
  1235   987   985    2
  1236   987   993    1
  1237  1845  1843    2
  1238  1845  1851    1
  1239  2274  2272    2
  1240  2274  2280    1
  1241  2703  2701    2
  1242  2703  2709    1
  1243  3132  3130    2
  1244  3132  3138    1
  1245  1416  1414    2
  1246  1416  1422    1
  1247  3561  3559    2
  1248  3561  3567    1
  1249   558   556    2
  1250   558   564    1
  1251   547   644    1
  1252   118   215    1
  1253  3550  3647    1
  1254  3121  3218    1
  1255   976  1073    1
  1256  1834  1931    1
  1257  2692  2789    1
  1258  2263  2360    1
  1259  1405  1502    1
  1260  1365  1803   ar
  1261  1365  1494   ar
  1262  2652  3090   ar
  1263  2652  2781   ar
  1264   507   945   ar
  1265   507   636   ar
  1266   936  1065    1
  1267  2223  2352    1
  1268  3510  3639    1
  1269  3081  3519   ar
  1270  3081  3210   ar
  1271  1794  2232   ar
  1272  1794  1923   ar
  1273    78   516   ar
  1274    78   207   ar
  1275  1374  1493    1
  1276  3519  3638   ar
  1277  2661  2780    1
  1278    87   206    1
  1279  2232  2351   ar
  1280   516   635   ar
  1281  1803  1922   ar
  1282  3090  3209   ar
  1283   945  1064   ar
  1284  2687  2788    1
  1285   113   214    1
  1286  2258  2359    1
  1287   971  1072    1
  1288  1829  1930    1
  1289  3116  3217    1
  1290  1400  1501    1
  1291   542   643    1
  1292  3545  3646    1
  1293  2685  2786    1
  1294   111   212    1
  1295  3114  3215    1
  1296   969  1070    1
  1297  1398  1499    1
  1298  2256  2357    1
  1299   540   641    1
  1300  3543  3644    1
  1301  1827  1928    1
  1302   120   213    1
  1303   549   642    1
  1304  3552  3645    1
  1305  2694  2787    1
  1306  3123  3216    1
  1307   978  1071    1
  1308  1836  1929    1
  1309  2265  2358    1
  1310  1407  1500    1
  1311  2711  2706    1
  1312   995   990    1
  1313  3569  3564    1
  1314  3140  3135    1
  1315   137   132    1
  1316  1853  1848    1
  1317   566   561    1
  1318  2282  2277    1
  1319  1424  1419    1
  1320  1412  1414    1
  1321  3557  3559    1
  1322   983   985    1
  1323  3128  3130    1
  1324  1841  1843    1
  1325   554   556    1
  1326  2699  2701    1
  1327  2270  2272    1
  1328   125   127    1
  1329   561   568    1
  1330   561   562    1
  1331   132   139    1
  1332   132   133    1
  1333   990   997    1
  1334   990   991    1
  1335  2706  2713    1
  1336  2706  2707    1
  1337  3564  3571    1
  1338  3564  3565    1
  1339  1419  1426    1
  1340  1419  1420    1
  1341  3135  3142    1
  1342  3135  3136    1
  1343  1848  1855    1
  1344  1848  1849    1
  1345  2277  2284    1
  1346  2277  2278    1
  1347  2713  2709    1
  1348  2713  2717    1
  1349   139   135    1
  1350   139   143    1
  1351   568   564    1
  1352   568   572    1
  1353  3142  3138    1
  1354  3142  3146    1
  1355  3571  3567    1
  1356  3571  3575    1
  1357  1426  1422    1
  1358  1426  1430    1
  1359  2284  2280    1
  1360  2284  2288    1
  1361   997   993    1
  1362   997  1001    1
  1363  1855  1851    1
  1364  1855  1859    1
  1365   127   131    1
  1366  2272  2276    1
  1367  2701  2705    1
  1368  3130  3134    1
  1369  1843  1847    1
  1370   556   560    1
  1371   985   989    1
  1372  3559  3563    1
  1373  1414  1418    1
  1374  1851  1854    1
  1375  1422  1425    1
  1376   135   138    1
  1377   564   567    1
  1378  2709  2712    1
  1379  3138  3141    1
  1380  2280  2283    1
  1381  3567  3570    1
  1382   993   996    1
  1383  1022  1125    1
  1384  3167  3270    1
  1385  2738  2841    1
  1386  3596  3699    1
  1387  1880  1983    1
  1388  1451  1554    1
  1389   164   267    1
  1390  2309  2412    1
  1391   593   696    1
  1392  3641  3647    1
  1393  3641  3661   ar
  1394  1496  1502    1
  1395  1496  1516   ar
  1396  1925  1931    1
  1397  1925  1945   ar
  1398  2354  2360    1
  1399  2354  2374   ar
  1400   638   644    2
  1401   638   658    1
  1402  3212  3218    1
  1403  3212  3232   ar
  1404   209   215    2
  1405   209   229    1
  1406  1067  1073    2
  1407  1067  1087    1
  1408  2783  2789    1
  1409  2783  2803   ar
  1410  2353  2359    1
  1411  2353  2367   ar
  1412  2782  2788    2
  1413  2782  2796    1
  1414   637   643    1
  1415   637   651   ar
  1416  1495  1501    1
  1417  1495  1509   ar
  1418  1924  1930    1
  1419  1924  1938   ar
  1420  3640  3646    2
  1421  3640  3654    1
  1422  3211  3217    2
  1423  3211  3225    1
  1424  1066  1072    1
  1425  1066  1080   ar
  1426   208   214    1
  1427   208   222   ar
  1428  1983  1864    1
  1429  1125  1006    1
  1430  1554  1435    1
  1431  2412  2293    1
  1432  3270  3151    1
  1433   696   577    1
  1434  2841  2722    1
  1435  3699  3580    1
  1436   267   148    1
  1437  2360  2402    1
  1438  3218  3260    1
  1439  3647  3689    1
  1440  1502  1544    1
  1441  2789  2831    1
  1442  1931  1973    1
  1443  1073  1115    1
  1444   644   686    1
  1445   215   257    1
  1446  1930  1976    1
  1447  2788  2834    1
  1448  1072  1118    1
  1449  3646  3692    1
  1450  2359  2405    1
  1451   214   260    1
  1452  3217  3263    1
  1453  1501  1547    1
  1454   643   689    1
  1455   641   635    1
  1456   641   691    1
  1457  2357  2351    1
  1458  2357  2407    1
  1459   212   206    2
  1460   212   262    1
  1461  1070  1064    1
  1462  1070  1120    1
  1463  2786  2780    2
  1464  2786  2836    1
  1465  3644  3638    1
  1466  3644  3694    1
  1467  1928  1922    1
  1468  1928  1978    1
  1469  3215  3209    1
  1470  3215  3265    1
  1471  1499  1493    2
  1472  1499  1549    1
  1473  3216  3210    1
  1474  3216  3258    1
  1475  1929  1923    1
  1476  1929  1971    1
  1477  2787  2781    1
  1478  2787  2829    1
  1479  3645  3639    2
  1480  3645  3687    1
  1481   213   207    1
  1482   213   255    1
  1483  1071  1065    2
  1484  1071  1113    1
  1485  2358  2352    2
  1486  2358  2400    1
  1487  1500  1494    1
  1488  1500  1542    1
  1489   642   636    1
  1490   642   684    1
  1491   206   220    1
  1492  2351  2365   ar
  1493  1493  1507    1
  1494   635   649   ar
  1495  3638  3652   ar
  1496  1922  1936   ar
  1497  3209  3223   ar
  1498  2780  2794    1
  1499  1064  1078   ar
  1500  1494  1518   ar
  1501  3210  3234   ar
  1502   207   231   ar
  1503  2781  2805   ar
  1504  2352  2376    1
  1505   636   660   ar
  1506  3639  3663    1
  1507  1923  1947   ar
  1508  1065  1089    1
  1509   695   594    1
  1510  1124  1023    1
  1511  1982  1881    1
  1512  3269  3168    1
  1513   266   165    1
  1514  2840  2739    1
  1515  1553  1452    1
  1516  3698  3597    1
  1517  2411  2310    1
  1518  1418  1425    1
  1519  1418  1421    1
  1520   989   996    1
  1521   989   992    1
  1522  2276  2283    1
  1523  2276  2279    1
  1524  1847  1854    1
  1525  1847  1850    1
  1526   131   138    1
  1527   131   134    1
  1528  3563  3570    1
  1529  3563  3566    1
  1530  3134  3141    1
  1531  3134  3137    1
  1532   560   567    1
  1533   560   563    1
  1534  2705  2712    1
  1535  2705  2708    1
  1536  2712  2716    1
  1537  3141  3145    1
  1538  2283  2287    1
  1539  1854  1858    1
  1540   138   142    1
  1541  3570  3574    1
  1542   567   571    1
  1543   996  1000    1
  1544  1425  1429    1
  1545  2831  2722    1
  1546   686   577    1
  1547  3689  3580    1
  1548  1115  1006    1
  1549  1973  1864    1
  1550   257   148    1
  1551  3260  3151    1
  1552  2402  2293    1
  1553  1544  1435    1
  1554  3232  1938   ar
  1555  3232  3163    1
  1556   658   589    1
  1557  2803  1509   ar
  1558  2803  2734    1
  1559  1516   222   ar
  1560  1516  1447    1
  1561  1945   651   ar
  1562  1945  1876    1
  1563  3661  2367   ar
  1564  3661  3592    1
  1565  1087  1018    1
  1566  2374  1080   ar
  1567  2374  2305    1
  1568   229   160    1
  1569  1118  1003    1
  1570  3263  3148    1
  1571  1976  1861    1
  1572  2405  2290    1
  1573  3692  3577    1
  1574  2834  2719    1
  1575   260   145    1
  1576  1547  1432    1
  1577   689   574    1
  1578  1971  1864    1
  1579  2829  2722    1
  1580  1113  1006    1
  1581  3687  3580    1
  1582  1542  1435    1
  1583   684   577    1
  1584   255   148    1
  1585  3258  3151    1
  1586  2400  2293    1
  1587  1120  1003    1
  1588   691   574    1
  1589  3694  3577    1
  1590  3265  3148    1
  1591  1549  1432    1
  1592  1978  1861    1
  1593  2407  2290    1
  1594  2836  2719    1
  1595   262   145    1
  1596  3225  3161    1
  1597  2367  2303    1
  1598  1509  1445    1
  1599  1080  1016    1
  1600  3654  3590    1
  1601  1938  1874    1
  1602   651   587    1
  1603  2796  2732    1
  1604   222   158    1
  1605   649   231   ar
  1606   649   585    1
  1607  1078   660   ar
  1608  1078  1014    1
  1609  3223  2805   ar
  1610  3223  3159    1
  1611  3652  3234   ar
  1612  3652  3588    1
  1613   220   156    1
  1614  1936  1518   ar
  1615  1936  1872    1
  1616  2794  2730    1
  1617  2365  1947   ar
  1618  2365  2301    1
  1619  1507  1443    1
  1620  3663  3664    1
  1621  1089  1090    1
  1622   231   232    1
  1623  2376  2377    1
  1624  1947  1948    1
  1625  3234  3235    1
  1626  1518  1519    1
  1627   660   661    1
  1628  2805  2806    1
  1629  1423  1421    1
  1630  3568  3566    1
  1631  2281  2279    1
  1632   994   992    1
  1633   565   563    1
  1634  3139  3137    1
  1635  1852  1850    1
  1636   136   134    1
  1637  2710  2708    1
  1638  1864  1967    1
  1639  1864  1965    1
  1640  1864  1955    1
  1641  1435  1538    1
  1642  1435  1536    1
  1643  1435  1526    1
  1644  1006  1109    1
  1645  1006  1107    1
  1646  1006  1097    1
  1647  3151  3254    1
  1648  3151  3252    1
  1649  3151  3242    1
  1650   577   680    1
  1651   577   678    1
  1652   577   668    1
  1653   148   251    1
  1654   148   249    1
  1655   148   239    1
  1656  2293  2396    1
  1657  2293  2394    1
  1658  2293  2384    1
  1659  2722  2825    1
  1660  2722  2823    1
  1661  2722  2813    1
  1662  3580  3683    1
  1663  3580  3681    1
  1664  3580  3671    1
  1665  1421  1417    1
  1666  1421  1428    1
  1667  3137  3133    1
  1668  3137  3144    1
  1669  2279  2275    1
  1670  2279  2286    1
  1671   134   130    1
  1672   134   141    1
  1673  3566  3562    1
  1674  3566  3573    1
  1675   563   559    1
  1676   563   570    1
  1677   992   988    1
  1678   992   999    1
  1679  1850  1846    1
  1680  1850  1857    1
  1681  2708  2704    1
  1682  2708  2715    1
  1683  2290  2389    1
  1684  2290  2391    1
  1685  2290  2387    1
  1686  3577  3676    1
  1687  3577  3678    1
  1688  3577  3674    1
  1689  2719  2818    1
  1690  2719  2820    1
  1691  2719  2816    1
  1692  1432  1531    1
  1693  1432  1533    1
  1694  1432  1529    1
  1695   145   244    1
  1696   145   246    1
  1697   145   242    1
  1698  1861  1960    1
  1699  1861  1962    1
  1700  1861  1958    1
  1701   574   673    1
  1702   574   675    1
  1703   574   671    1
  1704  1003  1102    1
  1705  1003  1104    1
  1706  1003  1100    1
  1707  3148  3247    1
  1708  3148  3249    1
  1709  3148  3245    1
  1710   603   693    1
  1711  1032  1122    1
  1712  1890  1980    1
  1713  3606  3696    1
  1714  3177  3267    1
  1715  2319  2409    1
  1716  2748  2838    1
  1717  1461  1551    1
  1718   174   264    1
  1719  3254  3150    1
  1720  2825  2721    1
  1721  1109  1005    1
  1722  2396  2292    1
  1723   251   147    1
  1724  1538  1434    1
  1725  3683  3579    1
  1726   680   576    1
  1727  1967  1863    1
  1728  2818  2725    1
  1729  1960  1867    1
  1730  3247  3154    1
  1731  3676  3583    1
  1732   244   151    1
  1733  1102  1009    1
  1734   673   580    1
  1735  2389  2296    1
  1736  1531  1438    1
  1737  2377  2317    1
  1738  3235  3175    1
  1739  3235  3605    1
  1740   661   601    1
  1741   661  1031    1
  1742  1090  1030    1
  1743  2806  2746    1
  1744  2806  3176    1
  1745  1948  1888    1
  1746  1948  2318    1
  1747  1519  1459    1
  1748  1519  1889    1
  1749  3664  3604    1
  1750   232   172    1
  1751   232   602    1
  1752   678   576    1
  1753  3681  3579    1
  1754   249   147    1
  1755  2394  2292    1
  1756  1536  1434    1
  1757  2823  2721    1
  1758  3252  3150    1
  1759  1965  1863    1
  1760  1107  1005    1
  1761   675   580    1
  1762  3678  3583    1
  1763  1962  1867    1
  1764  3249  3154    1
  1765  1104  1009    1
  1766  2391  2296    1
  1767   246   151    1
  1768  1533  1438    1
  1769  2820  2725    1
  1770   693   580    1
  1771   264   151    1
  1772  2409  2296    1
  1773  3696  3583    1
  1774  2838  2725    1
  1775  3267  3154    1
  1776  1980  1867    1
  1777  1551  1438    1
  1778  1122  1009    1
  1779  3242  3192    1
  1780  3671  3621    1
  1781  2384  2334    1
  1782   668   618    1
  1783  1955  1905    1
  1784  1526  1476    1
  1785   239   189    1
  1786  1097  1047    1
  1787  2813  2763    1
  1788  3674  3618    1
  1789   671   615    1
  1790  2816  2760    1
  1791  1958  1902    1
  1792  2387  2331    1
  1793  3245  3189    1
  1794  1529  1473    1
  1795  1100  1044    1
  1796   242   186    1
  1797  2721  2814    1
  1798  2721  2833    1
  1799  3579  3672    1
  1800  3579  3691    1
  1801   147   240    1
  1802   147   259    1
  1803   576   669    1
  1804   576   688    1
  1805  1005  1098    1
  1806  1005  1117    1
  1807  1434  1527    1
  1808  1434  1546    1
  1809  2292  2385    1
  1810  2292  2404    1
  1811  1863  1956    1
  1812  1863  1975    1
  1813  3150  3243    1
  1814  3150  3262    1
  1815  2725  2810    1
  1816  2725  2826    1
  1817  3583  3668    1
  1818  3583  3684    1
  1819  2296  2381    1
  1820  2296  2397    1
  1821  1867  1952    1
  1822  1867  1968    1
  1823  3154  3239    1
  1824  3154  3255    1
  1825   151   236    1
  1826   151   252    1
  1827   580   665    1
  1828   580   681    1
  1829  1438  1523    1
  1830  1438  1539    1
  1831  1009  1094    1
  1832  1009  1110    1
  1833   613   633    1
  1834  3187  3207    1
  1835   184   204    1
  1836  2758  2778    1
  1837  3616  3636    1
  1838  1900  1920    1
  1839  1471  1491    1
  1840  2329  2349    1
  1841  1042  1062    1
  1842  3603  3629    1
  1843  1887  1913    1
  1844  1029  1055    1
  1845  1458  1484    1
  1846   171   197    1
  1847  2745  2771    1
  1848  2316  2342    1
  1849  3174  3200    1
  1850   600   626    1
  1851   169   200    1
  1852  2743  2774    1
  1853  1027  1058    1
  1854  2314  2345    1
  1855  1456  1487    1
  1856  3172  3203    1
  1857  3601  3632    1
  1858  1885  1916    1
  1859   598   629    1
  1860  2763  2814    1
  1861  2763  2767    1
  1862  3192  3243    1
  1863  3192  3196    1
  1864   189   240    1
  1865   189   193    1
  1866  1905  1956    1
  1867  1905  1909    1
  1868  3621  3672    1
  1869  3621  3625    1
  1870  2334  2385    1
  1871  2334  2338    1
  1872  1476  1527    1
  1873  1476  1480    1
  1874   618   669    1
  1875   618   622    1
  1876  1047  1098    1
  1877  1047  1051    1
  1878  3207  3221    2
  1879  3207  3227    1
  1880  1491  1505   ar
  1881  1491  1511   ar
  1882  1062  1076    2
  1883  1062  1082    1
  1884   633   647   ar
  1885   633   653   ar
  1886  2349  2363    2
  1887  2349  2369    1
  1888  3636  3650    2
  1889  3636  3656    1
  1890  2778  2792    2
  1891  2778  2798    1
  1892   204   218   ar
  1893   204   224   ar
  1894  1920  1934   ar
  1895  1920  1940   ar
  1896   154   218    1
  1897  1441  1505    1
  1898  1870  1934    1
  1899  2299  2363    1
  1900  1012  1076    1
  1901  3586  3650    1
  1902   583   647    1
  1903  3157  3221    1
  1904  2728  2792    1
  1905  3617  2369    1
  1906  2330  1082    1
  1907  1472   224    1
  1908  1901   653    1
  1909  3188  1940    1
  1910  2759  1511    1
  1911  1902  1952    1
  1912  1902  1906    1
  1913  1044  1094    1
  1914  1044  1048    1
  1915   186   236    1
  1916   186   190    1
  1917  3189  3239    1
  1918  3189  3193    2
  1919  3618  3668    1
  1920  3618  3622    2
  1921  2331  2381    1
  1922  2331  2335    1
  1923   615   665    1
  1924   615   619    1
  1925  1473  1523    1
  1926  1473  1477    1
  1927  2760  2810    1
  1928  2760  2764    2
  1929  1934  3657   ar
  1930   647  2370   ar
  1931   218  1941   ar
  1932  1505  3228   ar
  1933  2833  2784    1
  1934  2404  2355    1
  1935   259   210    1
  1936  1117  1068    1
  1937  1975  1926    1
  1938   688   639    1
  1939  1546  1497    1
  1940  3262  3213    1
  1941  3691  3642    1
  1942  1940  3651   ar
  1943   653  2364   ar
  1944  1511  3222   ar
  1945   224  1935   ar
  1946  1484  1480   ar
  1947  1484  1915   ar
  1948  1055  1051    1
  1949  2771  2767   ar
  1950  2771  3202   ar
  1951   626   622   ar
  1952   626  1057   ar
  1953  3200  3196   ar
  1954  3200  3631   ar
  1955  2342  2338    1
  1956  3629  3625    1
  1957   197   193   ar
  1958   197   628   ar
  1959  1913  1909   ar
  1960  1913  2344   ar
  1961   252   210    1
  1962  3684  3642    1
  1963  3255  3213    1
  1964  1968  1926    1
  1965  1539  1497    1
  1966  1110  1068    1
  1967   681   639    1
  1968  2826  2784    1
  1969  2397  2355    1
  1970  1916  1906   ar
  1971  1916  3198   ar
  1972   200   190   ar
  1973   200  1482   ar
  1974  3203  3193    1
  1975  2774  2764    1
  1976  2345  2335   ar
  1977  2345  3627   ar
  1978   629   619   ar
  1979   629  1911   ar
  1980  3632  3622    1
  1981  1487  1477   ar
  1982  1487  2769   ar
  1983  1058  1048   ar
  1984  1058  2340   ar
  1985  2767  2772   ar
  1986  3196  3201   ar
  1987  2338  2343    2
  1988  3625  3630    2
  1989  1909  1914   ar
  1990   193   198   ar
  1991  1480  1485   ar
  1992   622   627   ar
  1993  1051  1056    2
  1994  1497  1489    1
  1995  3642  3634    1
  1996  2784  2776    1
  1997  2355  2347    1
  1998   210   202    1
  1999  1068  1060    1
  2000  3213  3205    1
  2001   639   631    1
  2002  1926  1918    1
  2003  1457  1482    1
  2004  3173  3198    1
  2005  2744  2769    1
  2006  2315  2340    1
  2007  1028  1053    1
  2008  3602  3627    1
  2009  1886  1911    1
  2010   170   195    1
  2011   599   624    1
  2012  2764  2768    1
  2013  3622  3626    1
  2014  1477  1481   ar
  2015   619   623   ar
  2016  1906  1910   ar
  2017  3193  3197    1
  2018  1048  1052   ar
  2019  2335  2339   ar
  2020   190   194   ar
  2021  3169  3202    1
  2022   595   628    1
  2023   166   199    1
  2024  1882  1915    1
  2025  3598  3631    1
  2026  2740  2773    1
  2027  1024  1057    1
  2028  1453  1486    1
  2029  2311  2344    1
  2030  3228  3166    1
  2031  3228  3208   ar
  2032  2370  2308    1
  2033  2370  2350   ar
  2034  1512  1450    1
  2035  1512  1492    1
  2036   225   163    1
  2037   225   205    1
  2038   654   592    1
  2039   654   634    1
  2040  2799  2737    1
  2041  2799  2779    1
  2042  1083  1021    1
  2043  1083  1063    1
  2044  3657  3595    1
  2045  3657  3637   ar
  2046  1941  1879    1
  2047  1941  1921   ar
  2048   624   620    1
  2049  3198  3194   ar
  2050  2340  2336   ar
  2051  3627  3623   ar
  2052   195   191    1
  2053  1482  1478   ar
  2054  1053  1049    1
  2055  2769  2765   ar
  2056  1911  1907   ar
  2057  1077  1011    1
  2058  1077  1063    1
  2059  1506  1440    1
  2060  1506  1492    1
  2061   219   153    1
  2062   219   205    1
  2063  2793  2727    1
  2064  2793  2779    1
  2065   648   582    1
  2066   648   634    1
  2067  2364  2298    1
  2068  2364  2350   ar
  2069  3651  3585    1
  2070  3651  3637   ar
  2071  3222  3156    1
  2072  3222  3208   ar
  2073  1935  1869    1
  2074  1935  1921   ar
  2075  1915  1908   ar
  2076  2773  2766    1
  2077   199   192    1
  2078  1486  1479    1
  2079   628   621   ar
  2080  1057  1050   ar
  2081  3202  3195   ar
  2082  2344  2337   ar
  2083  3631  3624   ar
  2084  1921  1927    1
  2085   634   640    2
  2086  1492  1498    2
  2087  2779  2785    2
  2088  3637  3643    1
  2089  2350  2356    1
  2090  1063  1069    2
  2091  3208  3214    1
  2092   205   211    2
  2093  1041  1074    1
  2094  3615  3648    1
  2095  1899  1932    1
  2096  3186  3219    1
  2097   612   645    1
  2098  1470  1503    1
  2099  2328  2361    1
  2100   183   216    1
  2101  2757  2790    1
  2102   202   216   ar
  2103   202   226   ar
  2104  1918  1932   ar
  2105  1918  1942   ar
  2106  3205  3219   ar
  2107  3205  3229   ar
  2108  2347  2361   ar
  2109  2347  2371   ar
  2110  1489  1503   ar
  2111  1489  1513   ar
  2112   631   645   ar
  2113   631   655   ar
  2114  2776  2790   ar
  2115  2776  2800   ar
  2116  1060  1074   ar
  2117  1060  1084   ar
  2118  3634  3648   ar
  2119  3634  3658   ar
  2120  2306  2371    1
  2121  1877  1942    1
  2122  3593  3658    1
  2123   590   655    1
  2124  1448  1513    1
  2125  1019  1084    1
  2126  2735  2800    1
  2127  3164  3229    1
  2128   161   226    1
  2129  2343  2312    1
  2130  1056  1025    1
  2131  2772  2741    1
  2132  2772  3199   ar
  2133   627   596    1
  2134   627  1054   ar
  2135  3630  3599    1
  2136   198   167    1
  2137   198   625   ar
  2138  1914  1883    1
  2139  1914  2341   ar
  2140  3201  3170    1
  2141  3201  3628   ar
  2142  1485  1454    1
  2143  1485  1912   ar
  2144  1466  1521    1
  2145  3182  3237    1
  2146  2753  2808    1
  2147   179   234    1
  2148  2324  2379    1
  2149   608   663    1
  2150  1895  1950    1
  2151  3611  3666    1
  2152  1037  1092    1
  2153  3219  3230   ar
  2154  3648  3659   ar
  2155   216   227   ar
  2156  1503  1514   ar
  2157  1074  1085   ar
  2158  1932  1943   ar
  2159  2361  2372   ar
  2160  2790  2801   ar
  2161   645   656   ar
  2162   623   663    1
  2163   623  1917   ar
  2164  2768  2808    1
  2165  2339  2379    1
  2166  2339  3633   ar
  2167  3197  3237    1
  2168  1052  1092    1
  2169  1052  2346   ar
  2170  1910  1950    1
  2171  1910  3204   ar
  2172  1481  1521    1
  2173  1481  2775   ar
  2174  3626  3666    1
  2175   194   234    1
  2176   194  1488   ar
  2177  1513  1504   ar
  2178  1084  1075   ar
  2179  2800  2791   ar
  2180   226   217   ar
  2181  1942  1933   ar
  2182  2371  2362   ar
  2183   655   646   ar
  2184  3229  3220   ar
  2185  3658  3649   ar
  2186  3623  3633   ar
  2187  3623  3619    1
  2188  1478  1488   ar
  2189  1478  1474    1
  2190  1907  1917   ar
  2191  1907  1903    1
  2192  2765  2775   ar
  2193  2765  2761    1
  2194   620   630    2
  2195   620   616    1
  2196  3194  3204   ar
  2197  3194  3190    1
  2198  1049  1059    2
  2199  1049  1045    1
  2200   191   201    2
  2201   191   187    1
  2202  2336  2346   ar
  2203  2336  2332    1
  2204  3643  3685    1
  2205  3643  3690    1
  2206   211   253    1
  2207   211   258    1
  2208  1069  1111    1
  2209  1069  1116    1
  2210  2785  2827    1
  2211  2785  2832    1
  2212  3214  3256    1
  2213  3214  3261    1
  2214  1498  1540    1
  2215  1498  1545    1
  2216  2356  2398    1
  2217  2356  2403    1
  2218   640   682    1
  2219   640   687    1
  2220  1927  1969    1
  2221  1927  1974    1
  2222  1908  1912   ar
  2223  1908  1904    1
  2224  2337  2341   ar
  2225  2337  2333    1
  2226  2766  2770    2
  2227  2766  2762    1
  2228  3624  3628   ar
  2229  3624  3620    1
  2230  1479  1483    2
  2231  1479  1475    1
  2232   621   625   ar
  2233   621   617    1
  2234   192   196    2
  2235   192   188    1
  2236  3195  3199   ar
  2237  3195  3191    1
  2238  1050  1054   ar
  2239  1050  1046    1
  2240  1521  1465    1
  2241   663   607    1
  2242  2379  2323    1
  2243  3237  3181    1
  2244  1950  1894    1
  2245  3666  3610    1
  2246  1092  1036    1
  2247   234   178    1
  2248  2808  2752    1
  2249   253   150    1
  2250  1540  1437    1
  2251  3256  3153    1
  2252  1111  1008    1
  2253  2827  2724    1
  2254   682   579    1
  2255  3685  3582    1
  2256  2398  2295    1
  2257  1969  1866    1
  2258  1488  1455    1
  2259  3204  3171    1
  2260  1917  1884    1
  2261   630   597    1
  2262  1059  1026    1
  2263   201   168    1
  2264  2346  2313    1
  2265  3633  3600    1
  2266  2775  2742    1
  2267  1974  1862    1
  2268  1116  1004    1
  2269  2832  2720    1
  2270  2403  2291    1
  2271  3261  3149    1
  2272   687   575    1
  2273  1545  1433    1
  2274   258   146    1
  2275  3690  3578    1
  2276  2811  2761    1
  2277  2811  2724    1
  2278  1524  1474    1
  2279  1524  1437    1
  2280  3240  3190    1
  2281  3240  3153    1
  2282   237   187    1
  2283   237   150    1
  2284   666   616    1
  2285   666   579    1
  2286  2382  2332    1
  2287  2382  2295    1
  2288  3669  3619    1
  2289  3669  3582    1
  2290  1953  1903    1
  2291  1953  1866    1
  2292  1095  1045    1
  2293  1095  1008    1
  2294  1912  1951    1
  2295  3199  3238    1
  2296  2341  2380    1
  2297   196   235    1
  2298  3628  3667    1
  2299   625   664    1
  2300  1483  1522    1
  2301  2770  2809    1
  2302  1054  1093    1
  2303  1943  1878    1
  2304  1943  1919   ar
  2305  1514  1449    1
  2306  1514  1490   ar
  2307   656   591    1
  2308   656   632   ar
  2309  3659  3594    1
  2310  3659  3635   ar
  2311  3230  3165    1
  2312  3230  3206   ar
  2313  2372  2307    1
  2314  2372  2348   ar
  2315  1085  1020    1
  2316  1085  1061   ar
  2317   227   162    1
  2318   227   203   ar
  2319  2801  2736    1
  2320  2801  2777   ar
  2321  1099  1046    1
  2322  1099  1004    1
  2323   670   617    1
  2324   670   575    1
  2325  2815  2762    1
  2326  2815  2720    1
  2327  1528  1475    1
  2328  1528  1433    1
  2329  1957  1904    1
  2330  1957  1862    1
  2331  3673  3620    1
  2332  3673  3578    1
  2333  3244  3191    1
  2334  3244  3149    1
  2335   241   188    1
  2336   241   146    1
  2337  2386  2333    1
  2338  2386  2291    1
  2339  2791  2777   ar
  2340  2791  2726    1
  2341   217   203   ar
  2342   217   152    1
  2343  2362  2348   ar
  2344  2362  2297    1
  2345  3220  3206   ar
  2346  3220  3155    1
  2347   646   632   ar
  2348   646   581    1
  2349  1504  1490   ar
  2350  1504  1439    1
  2351  1075  1061   ar
  2352  1075  1010    1
  2353  3649  3635   ar
  2354  3649  3584    1
  2355  1933  1919   ar
  2356  1933  1868    1
  2357  1474  1530    1
  2358  2761  2817    1
  2359  1045  1101    1
  2360  2332  2388    1
  2361   616   672    1
  2362  1903  1959    1
  2363  3190  3246    1
  2364   187   243    1
  2365  3619  3675    1
  2366   617   667    1
  2367  2762  2812    1
  2368  1904  1954    1
  2369  3620  3670    1
  2370  2333  2383    1
  2371   188   238    1
  2372  3191  3241    1
  2373  1046  1096    1
  2374  1475  1525    1
  2375  3206  3185    1
  2376  2777  2756    1
  2377  1490  1469    1
  2378  2348  2327    1
  2379  1061  1040    1
  2380   632   611    1
  2381  3635  3614    1
  2382   203   182    1
  2383  1919  1898    1
  2384   235   180    1
  2385   235   181    1
  2386  1522  1467    1
  2387  1522  1468    1
  2388  2809  2754    1
  2389  2809  2755    1
  2390  2380  2325    1
  2391  2380  2326    1
  2392   664   609    1
  2393   664   610    1
  2394  1951  1896    1
  2395  1951  1897    1
  2396  3667  3612    1
  2397  3667  3613    1
  2398  3238  3183    1
  2399  3238  3184    1
  2400  1093  1038    1
  2401  1093  1039    1
  2402  2724  2839    1
  2403  2724  2819    1
  2404  2724  2821    1
  2405   579   694    1
  2406   579   674    1
  2407   579   676    1
  2408   150   265    1
  2409   150   245    1
  2410   150   247    1
  2411  2295  2410    1
  2412  2295  2390    1
  2413  2295  2392    1
  2414  1437  1552    1
  2415  1437  1532    1
  2416  1437  1534    1
  2417  3153  3268    1
  2418  3153  3248    1
  2419  3153  3250    1
  2420  1866  1981    1
  2421  1866  1961    1
  2422  1866  1963    1
  2423  3582  3697    1
  2424  3582  3677    1
  2425  3582  3679    1
  2426  1008  1123    1
  2427  1008  1103    1
  2428  1008  1105    1
  2429  3578  3682    1
  2430  3578  3680    1
  2431  1862  1966    1
  2432  1862  1964    1
  2433  3149  3253    1
  2434  3149  3251    1
  2435  1004  1108    1
  2436  1004  1106    1
  2437  2291  2395    1
  2438  2291  2393    1
  2439  2720  2824    1
  2440  2720  2822    1
  2441  1433  1537    1
  2442  1433  1535    1
  2443   146   250    1
  2444   146   248    1
  2445   575   679    1
  2446   575   677    1
  2447  2817  2718    1
  2448   672   573    1
  2449  3675  3576    1
  2450  3246  3147    1
  2451  2388  2289    1
  2452  1530  1431    1
  2453  1959  1860    1
  2454   243   144    1
  2455  1101  1002    1
  2456  1954  1865    1
  2457  1525  1436    1
  2458  3670  3581    1
  2459   667   578    1
  2460   238   149    1
  2461  1096  1007    1
  2462  3241  3152    1
  2463  2383  2294    1
  2464  2812  2723    1
  2465  1463  1520    1
  2466   176   233    1
  2467  3179  3236    1
  2468  1892  1949    1
  2469  3608  3665    1
  2470   605   662    1
  2471  2750  2807    1
  2472  1034  1091    1
  2473  2321  2378    1
  2474  3697  3607    1
  2475   265   175    1
  2476  2839  2749    1
  2477  2410  2320    1
  2478  1981  1891    1
  2479  1552  1462    1
  2480   694   604    1
  2481  1123  1033    1
  2482  3268  3178    1
  2483  1961  1860    1
  2484  1103  1002    1
  2485   245   144    1
  2486  3677  3576    1
  2487  3248  3147    1
  2488  2819  2718    1
  2489  2390  2289    1
  2490  1532  1431    1
  2491   674   573    1
  2492   679   578    1
  2493  3682  3581    1
  2494  1966  1865    1
  2495  3253  3152    1
  2496  2395  2294    1
  2497  1108  1007    1
  2498  1537  1436    1
  2499  2824  2723    1
  2500   250   149    1
  2501  2751  2807    1
  2502  3609  3665    1
  2503  2322  2378    1
  2504  1464  1520    1
  2505   606   662    1
  2506  1035  1091    1
  2507   177   233    1
  2508  1893  1949    1
  2509  3180  3236    1
  2510  2807  2802    1
  2511   662   657    1
  2512  1949  1944    1
  2513  3236  3231    1
  2514   233   228    1
  2515  2378  2373    1
  2516  3665  3660    1
  2517  1091  1086    1
  2518  1520  1515    1
  2519   676   573    1
  2520  3250  3147    1
  2521   247   144    1
  2522  1963  1860    1
  2523  1105  1002    1
  2524  2821  2718    1
  2525  1534  1431    1
  2526  3679  3576    1
  2527  2392  2289    1
  2528  3251  3152    1
  2529   248   149    1
  2530  2393  2294    1
  2531  3680  3581    1
  2532  1535  1436    1
  2533   677   578    1
  2534  2822  2723    1
  2535  1964  1865    1
  2536  1106  1007    1
  2537  2843  2846    1
  2538  3701  3704    1
  2539   698   701    1
  2540  1985  1988    1
  2541  1127  1130    1
  2542   269   272    1
  2543  1556  1559    1
  2544  3272  3275    1
  2545  2414  2417    1
  2546  3160  3226    1
  2547  1015  1081    1
  2548  1873  1939    1
  2549  1444  1510    1
  2550  2302  2368    1
  2551   157   223    1
  2552  3589  3655    1
  2553   586   652    1
  2554  2731  2797    1
  2555  3162  3233    1
  2556  1017  1088    1
  2557  3591  3662    1
  2558   588   659    1
  2559  2733  2804    1
  2560  1875  1946    1
  2561  1446  1517    1
  2562   159   230    1
  2563  2304  2375    1
  2564  1013  1079    1
  2565  3587  3653    1
  2566  1871  1937    1
  2567  3158  3224    1
  2568  1442  1508    1
  2569   155   221    1
  2570  2300  2366    1
  2571  2729  2795    1
  2572   584   650    1
  2573  1002  1119    1
  2574  1002  1121    1
  2575  1860  1977    1
  2576  1860  1979    1
  2577  2289  2406    1
  2578  2289  2408    1
  2579  3147  3264    1
  2580  3147  3266    1
  2581   573   690    1
  2582   573   692    1
  2583  3576  3693    1
  2584  3576  3695    1
  2585  2718  2835    1
  2586  2718  2837    1
  2587  1431  1548    1
  2588  1431  1550    1
  2589   144   261    1
  2590   144   263    1
  2591  1865  1972    1
  2592  1865  1970    1
  2593  1865  2125    1
  2594  3581  3688    1
  2595  3581  3686    1
  2596  3581  3841    1
  2597  2723  2830    1
  2598  2723  2828    1
  2599  2723  2983    1
  2600  2294  2401    1
  2601  2294  2399    1
  2602  2294  2554    1
  2603   149   256    1
  2604   149   254    1
  2605   149   409    1
  2606   578   685    1
  2607   578   683    1
  2608   578   838    1
  2609  1007  1114    1
  2610  1007  1112    1
  2611  1007  1267    1
  2612  1436  1543    1
  2613  1436  1541    1
  2614  1436  1696    1
  2615  3152  3259    1
  2616  3152  3257    1
  2617  3152  3412    1
  2618   712   711    1
  2619   283   282    1
  2620  3286  3285    1
  2621  2428  2427    1
  2622  1570  1569    1
  2623  1141  1140    1
  2624  2857  2856    1
  2625  1999  1998    1
  2626  3715  3714    1
  2627  3703  3707    1
  2628  1129  1133    1
  2629  1987  1991    1
  2630   271   275    1
  2631   700   704    1
  2632  3274  3278    1
  2633  2416  2420    1
  2634  2845  2849    1
  2635  1558  1562    1
  2636   652   781    1
  2637  2797  1515   ar
  2638  2797  2926   ar
  2639  1081  1210    1
  2640  1939   657   ar
  2641  1939  2068   ar
  2642  3655  2373   ar
  2643  3655  3784   ar
  2644  1510   228   ar
  2645  1510  1639   ar
  2646   223   352    1
  2647  2368  1086   ar
  2648  2368  2497   ar
  2649  3226  1944   ar
  2650  3226  3355   ar
  2651  3231  3354    1
  2652  2373  2496   ar
  2653   657   780   ar
  2654   228   351   ar
  2655  3660  3783    1
  2656  2802  2925    1
  2657  1086  1209   ar
  2658  1944  2067   ar
  2659  1515  1638   ar
  2660  2417  2415    2
  2661  2417  2423    1
  2662   701   699    2
  2663   701   707    1
  2664  3275  3273    2
  2665  3275  3281    1
  2666  1559  1557    2
  2667  1559  1565    1
  2668   272   270    2
  2669   272   278    1
  2670  3704  3702    2
  2671  3704  3710    1
  2672  1130  1128    2
  2673  1130  1136    1
  2674  1988  1986    2
  2675  1988  1994    1
  2676  2846  2844    2
  2677  2846  2852    1
  2678  1548  1645    1
  2679  2406  2503    1
  2680  2835  2932    1
  2681   690   787    1
  2682  1977  2074    1
  2683  1119  1216    1
  2684  3693  3790    1
  2685   261   358    1
  2686  3264  3361    1
  2687  2795  3233   ar
  2688  2795  2924   ar
  2689  1079  1208    1
  2690  3224  3662   ar
  2691  3224  3353   ar
  2692  1508  1946   ar
  2693  1508  1637   ar
  2694  3653  3782    1
  2695  1937  2375   ar
  2696  1937  2066   ar
  2697   650  1088   ar
  2698   650   779   ar
  2699  2366  2495    1
  2700   221   659   ar
  2701   221   350   ar
  2702  1088  1207   ar
  2703   659   778   ar
  2704  1517  1636    1
  2705   230   349    1
  2706  3233  3352   ar
  2707  2375  2494   ar
  2708  2804  2923    1
  2709  1946  2065   ar
  2710  3662  3781   ar
  2711  1543  1644    1
  2712  2401  2502    1
  2713  3259  3360    1
  2714   256   357    1
  2715  3688  3789    1
  2716  1114  1215    1
  2717  2830  2931    1
  2718   685   786    1
  2719  1972  2073    1
  2720  1970  2071    1
  2721  2399  2500    1
  2722  3686  3787    1
  2723  3257  3358    1
  2724   254   355    1
  2725  1541  1642    1
  2726  2828  2929    1
  2727  1112  1213    1
  2728   683   784    1
  2729  1550  1643    1
  2730  3695  3788    1
  2731   263   356    1
  2732  2837  2930    1
  2733  1979  2072    1
  2734  3266  3359    1
  2735  1121  1214    1
  2736  2408  2501    1
  2737   692   785    1
  2738  2854  2849    1
  2739  1567  1562    1
  2740  3283  3278    1
  2741  3712  3707    1
  2742  2425  2420    1
  2743  1138  1133    1
  2744   280   275    1
  2745  1996  1991    1
  2746   709   704    1
  2747  3700  3702    1
  2748  2842  2844    1
  2749  1984  1986    1
  2750   268   270    1
  2751  1555  1557    1
  2752  3271  3273    1
  2753  2413  2415    1
  2754  1126  1128    1
  2755   697   699    1
  2756  2849  2856    1
  2757  2849  2850    1
  2758  1133  1140    1
  2759  1133  1134    1
  2760   704   711    1
  2761   704   705    1
  2762  2420  2427    1
  2763  2420  2421    1
  2764  3278  3285    1
  2765  3278  3279    1
  2766  1562  1569    1
  2767  1562  1563    1
  2768   275   282    1
  2769   275   276    1
  2770  1991  1998    1
  2771  1991  1992    1
  2772  3707  3714    1
  2773  3707  3708    1
  2774  1140  1136    1
  2775  1140  1144    1
  2776  1569  1565    1
  2777  1569  1573    1
  2778  2856  2852    1
  2779  2856  2860    1
  2780  2427  2423    1
  2781  2427  2431    1
  2782  3714  3710    1
  2783  3714  3718    1
  2784  1998  1994    1
  2785  1998  2002    1
  2786  3285  3281    1
  2787  3285  3289    1
  2788   711   707    1
  2789   711   715    1
  2790   282   278    1
  2791   282   286    1
  2792  1986  1990    1
  2793   270   274    1
  2794  1557  1561    1
  2795  1128  1132    1
  2796  3273  3277    1
  2797  2844  2848    1
  2798  2415  2419    1
  2799  3702  3706    1
  2800   699   703    1
  2801   278   281    1
  2802  3281  3284    1
  2803  2852  2855    1
  2804  2423  2426    1
  2805  1565  1568    1
  2806   707   710    1
  2807  1136  1139    1
  2808  1994  1997    1
  2809  3710  3713    1
  2810  2452  2555    1
  2811   736   839    1
  2812  3310  3413    1
  2813  2881  2984    1
  2814  2023  2126    1
  2815  3739  3842    1
  2816   307   410    1
  2817  1165  1268    1
  2818  1594  1697    1
  2819   352   358    2
  2820   352   372    1
  2821   781   787    2
  2822   781   801    1
  2823  1210  1216    2
  2824  1210  1230    1
  2825  3355  3361    1
  2826  3355  3375   ar
  2827  3784  3790    1
  2828  3784  3804   ar
  2829  1639  1645    1
  2830  1639  1659   ar
  2831  2068  2074    1
  2832  2068  2088   ar
  2833  2497  2503    1
  2834  2497  2517   ar
  2835  2926  2932    1
  2836  2926  2946   ar
  2837  2067  2073    1
  2838  2067  2081   ar
  2839  2496  2502    1
  2840  2496  2510   ar
  2841   351   357    1
  2842   351   365   ar
  2843  2925  2931    2
  2844  2925  2939    1
  2845  3783  3789    2
  2846  3783  3797    1
  2847   780   786    1
  2848   780   794   ar
  2849  1209  1215    1
  2850  1209  1223   ar
  2851  1638  1644    1
  2852  1638  1652   ar
  2853  3354  3360    2
  2854  3354  3368    1
  2855  3842  3723    1
  2856   839   720    1
  2857  2984  2865    1
  2858  2555  2436    1
  2859  2126  2007    1
  2860  1268  1149    1
  2861  3413  3294    1
  2862  1697  1578    1
  2863   410   291    1
  2864  2932  2974    1
  2865  2074  2116    1
  2866   787   829    1
  2867  3790  3832    1
  2868   358   400    1
  2869  3361  3403    1
  2870  2503  2545    1
  2871  1216  1258    1
  2872  1645  1687    1
  2873   786   832    1
  2874  3789  3835    1
  2875  2073  2119    1
  2876  2931  2977    1
  2877  1644  1690    1
  2878  1215  1261    1
  2879  3360  3406    1
  2880   357   403    1
  2881  2502  2548    1
  2882  2071  2065    1
  2883  2071  2121    1
  2884   355   349    2
  2885   355   405    1
  2886  1213  1207    1
  2887  1213  1263    1
  2888   784   778    1
  2889   784   834    1
  2890  3358  3352    1
  2891  3358  3408    1
  2892  2500  2494    1
  2893  2500  2550    1
  2894  1642  1636    2
  2895  1642  1692    1
  2896  2929  2923    2
  2897  2929  2979    1
  2898  3787  3781    1
  2899  3787  3837    1
  2900  3359  3353    1
  2901  3359  3401    1
  2902  1643  1637    1
  2903  1643  1685    1
  2904  2501  2495    2
  2905  2501  2543    1
  2906  3788  3782    2
  2907  3788  3830    1
  2908   356   350    1
  2909   356   398    1
  2910   785   779    1
  2911   785   827    1
  2912  2072  2066    1
  2913  2072  2114    1
  2914  1214  1208    2
  2915  1214  1256    1
  2916  2930  2924    1
  2917  2930  2972    1
  2918  1636  1650    1
  2919  2065  2079   ar
  2920  2923  2937    1
  2921  3352  3366   ar
  2922  3781  3795   ar
  2923  1207  1221   ar
  2924  2494  2508   ar
  2925   349   363    1
  2926   778   792   ar
  2927   350   374   ar
  2928  3353  3377   ar
  2929  1637  1661   ar
  2930   779   803   ar
  2931  3782  3806    1
  2932  2066  2090   ar
  2933  2924  2948   ar
  2934  2495  2519    1
  2935  1208  1232    1
  2936  1696  1595    1
  2937   838   737    1
  2938  2983  2882    1
  2939  2125  2024    1
  2940   409   308    1
  2941  2554  2453    1
  2942  3412  3311    1
  2943  1267  1166    1
  2944  3841  3740    1
  2945  1990  1997    1
  2946  1990  1993    1
  2947   274   281    1
  2948   274   277    1
  2949  2848  2855    1
  2950  2848  2851    1
  2951  2419  2426    1
  2952  2419  2422    1
  2953  3706  3713    1
  2954  3706  3709    1
  2955  3277  3284    1
  2956  3277  3280    1
  2957   703   710    1
  2958   703   706    1
  2959  1132  1139    1
  2960  1132  1135    1
  2961  1561  1568    1
  2962  1561  1564    1
  2963  1568  1572    1
  2964  2426  2430    1
  2965  1997  2001    1
  2966   281   285    1
  2967  1139  1143    1
  2968   710   714    1
  2969  3713  3717    1
  2970  2855  2859    1
  2971  3284  3288    1
  2972   829   720    1
  2973  2974  2865    1
  2974  1687  1578    1
  2975  1258  1149    1
  2976  2545  2436    1
  2977   400   291    1
  2978  3832  3723    1
  2979  3403  3294    1
  2980  2116  2007    1
  2981  2946  1652   ar
  2982  2946  2877    1
  2983  3804  2510   ar
  2984  3804  3735    1
  2985  2517  1223   ar
  2986  2517  2448    1
  2987  1230  1161    1
  2988  1659   365   ar
  2989  1659  1590    1
  2990  2088   794   ar
  2991  2088  2019    1
  2992  3375  2081   ar
  2993  3375  3306    1
  2994   801   732    1
  2995   372   303    1
  2996   403   288    1
  2997  3406  3291    1
  2998  2119  2004    1
  2999  1261  1146    1
  3000   832   717    1
  3001  2977  2862    1
  3002  2548  2433    1
  3003  1690  1575    1
  3004  3835  3720    1
  3005  3830  3723    1
  3006  1685  1578    1
  3007  2972  2865    1
  3008  2114  2007    1
  3009   398   291    1
  3010  2543  2436    1
  3011  3401  3294    1
  3012   827   720    1
  3013  1256  1149    1
  3014  2979  2862    1
  3015   405   288    1
  3016   834   717    1
  3017  3837  3720    1
  3018  2121  2004    1
  3019  1692  1575    1
  3020  1263  1146    1
  3021  2550  2433    1
  3022  3408  3291    1
  3023  2939  2875    1
  3024  2510  2446    1
  3025  1223  1159    1
  3026  2081  2017    1
  3027  1652  1588    1
  3028  3797  3733    1
  3029  3368  3304    1
  3030   365   301    1
  3031   794   730    1
  3032  2937  2873    1
  3033  1221   803   ar
  3034  1221  1157    1
  3035  2079  1661   ar
  3036  2079  2015    1
  3037  3366  2948   ar
  3038  3366  3302    1
  3039   363   299    1
  3040  2508  2090   ar
  3041  2508  2444    1
  3042  1650  1586    1
  3043  3795  3377   ar
  3044  3795  3731    1
  3045   792   374   ar
  3046   792   728    1
  3047  1661  1662    1
  3048   374   375    1
  3049  2090  2091    1
  3050   803   804    1
  3051  3806  3807    1
  3052  3377  3378    1
  3053  1232  1233    1
  3054  2519  2520    1
  3055  2948  2949    1
  3056  1995  1993    1
  3057   279   277    1
  3058  1137  1135    1
  3059  3282  3280    1
  3060  2853  2851    1
  3061  3711  3709    1
  3062  1566  1564    1
  3063   708   706    1
  3064  2424  2422    1
  3065  1149  1252    1
  3066  1149  1250    1
  3067  1149  1240    1
  3068   720   823    1
  3069   720   821    1
  3070   720   811    1
  3071  2007  2110    1
  3072  2007  2108    1
  3073  2007  2098    1
  3074  3723  3826    1
  3075  3723  3824    1
  3076  3723  3814    1
  3077  3294  3397    1
  3078  3294  3395    1
  3079  3294  3385    1
  3080  2436  2539    1
  3081  2436  2537    1
  3082  2436  2527    1
  3083   291   394    1
  3084   291   392    1
  3085   291   382    1
  3086  1578  1681    1
  3087  1578  1679    1
  3088  1578  1669    1
  3089  2865  2968    1
  3090  2865  2966    1
  3091  2865  2956    1
  3092  1135  1131    1
  3093  1135  1142    1
  3094  3709  3705    1
  3095  3709  3716    1
  3096  2422  2418    1
  3097  2422  2429    1
  3098   706   702    1
  3099   706   713    1
  3100  1564  1560    1
  3101  1564  1571    1
  3102  2851  2847    1
  3103  2851  2858    1
  3104   277   273    1
  3105   277   284    1
  3106  1993  1989    1
  3107  1993  2000    1
  3108  3280  3276    1
  3109  3280  3287    1
  3110  2862  2961    1
  3111  2862  2963    1
  3112  2862  2959    1
  3113  1575  1674    1
  3114  1575  1676    1
  3115  1575  1672    1
  3116   717   816    1
  3117   717   818    1
  3118   717   814    1
  3119  1146  1245    1
  3120  1146  1247    1
  3121  1146  1243    1
  3122  2433  2532    1
  3123  2433  2534    1
  3124  2433  2530    1
  3125  2004  2103    1
  3126  2004  2105    1
  3127  2004  2101    1
  3128   288   387    1
  3129   288   389    1
  3130   288   385    1
  3131  3291  3390    1
  3132  3291  3392    1
  3133  3291  3388    1
  3134  3720  3819    1
  3135  3720  3821    1
  3136  3720  3817    1
  3137   746   836    1
  3138  2462  2552    1
  3139  2891  2981    1
  3140  1604  1694    1
  3141  1175  1265    1
  3142   317   407    1
  3143  3749  3839    1
  3144  2033  2123    1
  3145  3320  3410    1
  3146   394   290    1
  3147  2968  2864    1
  3148   823   719    1
  3149  2539  2435    1
  3150  1681  1577    1
  3151  1252  1148    1
  3152  3826  3722    1
  3153  3397  3293    1
  3154  2110  2006    1
  3155  3390  3297    1
  3156  2103  2010    1
  3157  2961  2868    1
  3158  3819  3726    1
  3159  1245  1152    1
  3160  1674  1581    1
  3161  2532  2439    1
  3162   387   294    1
  3163   816   723    1
  3164  3378  3318    1
  3165  3378  3748    1
  3166  1233  1173    1
  3167  2520  2460    1
  3168  3807  3747    1
  3169  2949  2889    1
  3170  2949  3319    1
  3171  1662  1602    1
  3172  1662  2032    1
  3173   375   315    1
  3174   375   745    1
  3175   804   744    1
  3176   804  1174    1
  3177  2091  2031    1
  3178  2091  2461    1
  3179  3395  3293    1
  3180  2966  2864    1
  3181   392   290    1
  3182  3824  3722    1
  3183  1250  1148    1
  3184  2108  2006    1
  3185  2537  2435    1
  3186  1679  1577    1
  3187   821   719    1
  3188   818   723    1
  3189  2963  2868    1
  3190  1676  1581    1
  3191  2105  2010    1
  3192  1247  1152    1
  3193   389   294    1
  3194  3392  3297    1
  3195  2534  2439    1
  3196  3821  3726    1
  3197   836   723    1
  3198  2981  2868    1
  3199  1694  1581    1
  3200  3839  3726    1
  3201  2552  2439    1
  3202   407   294    1
  3203  3410  3297    1
  3204  2123  2010    1
  3205  1265  1152    1
  3206   382   332    1
  3207  2527  2477    1
  3208  3814  3764    1
  3209  2956  2906    1
  3210  3385  3335    1
  3211  2098  2048    1
  3212   811   761    1
  3213  1240  1190    1
  3214  1669  1619    1
  3215  3817  3761    1
  3216  1243  1187    1
  3217   814   758    1
  3218  2101  2045    1
  3219  1672  1616    1
  3220   385   329    1
  3221  2530  2474    1
  3222  2959  2903    1
  3223  3388  3332    1
  3224  2435  2528    1
  3225  2435  2547    1
  3226  1148  1241    1
  3227  1148  1260    1
  3228  1577  1670    1
  3229  1577  1689    1
  3230  3722  3815    1
  3231  3722  3834    1
  3232   719   812    1
  3233   719   831    1
  3234  3293  3386    1
  3235  3293  3405    1
  3236   290   383    1
  3237   290   402    1
  3238  2006  2099    1
  3239  2006  2118    1
  3240  2864  2957    1
  3241  2864  2976    1
  3242   723   808    1
  3243   723   824    1
  3244   294   379    1
  3245   294   395    1
  3246  1152  1237    1
  3247  1152  1253    1
  3248  1581  1666    1
  3249  1581  1682    1
  3250  2439  2524    1
  3251  2439  2540    1
  3252  3297  3382    1
  3253  3297  3398    1
  3254  2868  2953    1
  3255  2868  2969    1
  3256  3726  3811    1
  3257  3726  3827    1
  3258  2010  2095    1
  3259  2010  2111    1
  3260  2043  2063    1
  3261  2472  2492    1
  3262  1614  1634    1
  3263  3759  3779    1
  3264  3330  3350    1
  3265   756   776    1
  3266  1185  1205    1
  3267   327   347    1
  3268  2901  2921    1
  3269  3746  3772    1
  3270  2459  2485    1
  3271  2030  2056    1
  3272   314   340    1
  3273   743   769    1
  3274  1172  1198    1
  3275  2888  2914    1
  3276  3317  3343    1
  3277  1601  1627    1
  3278   312   343    1
  3279  1599  1630    1
  3280  3744  3775    1
  3281  2886  2917    1
  3282   741   772    1
  3283  3315  3346    1
  3284  2028  2059    1
  3285  2457  2488    1
  3286  1170  1201    1
  3287  1190  1241    1
  3288  1190  1194    1
  3289  3335  3386    1
  3290  3335  3339    1
  3291  3764  3815    1
  3292  3764  3768    1
  3293  2048  2099    1
  3294  2048  2052    1
  3295  1619  1670    1
  3296  1619  1623    1
  3297   332   383    1
  3298   332   336    1
  3299  2906  2957    1
  3300  2906  2910    1
  3301   761   812    1
  3302   761   765    1
  3303  2477  2528    1
  3304  2477  2481    1
  3305  3350  3364    2
  3306  3350  3370    1
  3307  2492  2506    2
  3308  2492  2512    1
  3309  2063  2077   ar
  3310  2063  2083   ar
  3311  1205  1219    2
  3312  1205  1225    1
  3313  1634  1648   ar
  3314  1634  1654   ar
  3315   347   361   ar
  3316   347   367   ar
  3317  3779  3793    2
  3318  3779  3799    1
  3319   776   790   ar
  3320   776   796   ar
  3321  2921  2935    2
  3322  2921  2941    1
  3323  2013  2077    1
  3324  3300  3364    1
  3325  2871  2935    1
  3326  3729  3793    1
  3327  1584  1648    1
  3328   297   361    1
  3329  1155  1219    1
  3330  2442  2506    1
  3331   726   790    1
  3332  2044   796    1
  3333  2902  1654    1
  3334  1615   367    1
  3335  3331  2083    1
  3336  3760  2512    1
  3337  2473  1225    1
  3338   758   808    1
  3339   758   762    1
  3340  1616  1666    1
  3341  1616  1620    1
  3342  2045  2095    1
  3343  2045  2049    1
  3344   329   379    1
  3345   329   333    1
  3346  3761  3811    1
  3347  3761  3765    2
  3348  2903  2953    1
  3349  2903  2907    2
  3350  2474  2524    1
  3351  2474  2478    1
  3352  3332  3382    1
  3353  3332  3336    2
  3354  1187  1237    1
  3355  1187  1191    1
  3356  2077  3800   ar
  3357   361  2084   ar
  3358   790  2513   ar
  3359  1648  3371   ar
  3360   831   782    1
  3361  2547  2498    1
  3362  2976  2927    1
  3363  1689  1640    1
  3364  2118  2069    1
  3365  1260  1211    1
  3366  3834  3785    1
  3367   402   353    1
  3368  3405  3356    1
  3369   367  2078   ar
  3370  1654  3365   ar
  3371   796  2507   ar
  3372  2083  3794   ar
  3373  1627  1623   ar
  3374  1627  2058   ar
  3375   340   336   ar
  3376   340   771   ar
  3377  2485  2481    1
  3378  3343  3339   ar
  3379  3343  3774   ar
  3380  3772  3768    1
  3381  1198  1194    1
  3382   769   765   ar
  3383   769  1200   ar
  3384  2914  2910   ar
  3385  2914  3345   ar
  3386  2056  2052   ar
  3387  2056  2487   ar
  3388   824   782    1
  3389  2540  2498    1
  3390  2111  2069    1
  3391  1682  1640    1
  3392  1253  1211    1
  3393  2969  2927    1
  3394  3398  3356    1
  3395   395   353    1
  3396  3827  3785    1
  3397  2059  2049   ar
  3398  2059  3341   ar
  3399   772   762   ar
  3400   772  2054   ar
  3401  3775  3765    1
  3402  3346  3336    1
  3403   343   333   ar
  3404   343  1625   ar
  3405  1201  1191   ar
  3406  1201  2483   ar
  3407  2488  2478   ar
  3408  2488  3770   ar
  3409  1630  1620   ar
  3410  1630  2912   ar
  3411  2917  2907    1
  3412  1194  1199    2
  3413  2481  2486    2
  3414   765   770   ar
  3415   336   341   ar
  3416  2910  2915   ar
  3417  3768  3773    2
  3418  1623  1628   ar
  3419  3339  3344   ar
  3420  2052  2057   ar
  3421   782   774    1
  3422  2498  2490    1
  3423  3785  3777    1
  3424  2927  2919    1
  3425  3356  3348    1
  3426  2069  2061    1
  3427  1640  1632    1
  3428  1211  1203    1
  3429   353   345    1
  3430  2029  2054    1
  3431   313   338    1
  3432  3745  3770    1
  3433  3316  3341    1
  3434   742   767    1
  3435  1600  1625    1
  3436  2887  2912    1
  3437  2458  2483    1
  3438  1171  1196    1
  3439   762   766   ar
  3440  1191  1195   ar
  3441  3765  3769    1
  3442  3336  3340    1
  3443  2049  2053   ar
  3444  2478  2482   ar
  3445  1620  1624   ar
  3446  2907  2911    1
  3447   333   337   ar
  3448   738   771    1
  3449  2454  2487    1
  3450  1167  1200    1
  3451  1596  1629    1
  3452  2883  2916    1
  3453   309   342    1
  3454  3741  3774    1
  3455  3312  3345    1
  3456  2025  2058    1
  3457  1226  1164    1
  3458  1226  1206    1
  3459  2084  2022    1
  3460  2084  2064   ar
  3461  2513  2451    1
  3462  2513  2493   ar
  3463   797   735    1
  3464   797   777    1
  3465   368   306    1
  3466   368   348    1
  3467  3371  3309    1
  3468  3371  3351   ar
  3469  3800  3738    1
  3470  3800  3780   ar
  3471  1655  1593    1
  3472  1655  1635    1
  3473  2942  2880    1
  3474  2942  2922    1
  3475   767   763    1
  3476  1625  1621   ar
  3477   338   334    1
  3478  2912  2908   ar
  3479  2054  2050   ar
  3480  2483  2479   ar
  3481  3341  3337   ar
  3482  3770  3766   ar
  3483  1196  1192    1
  3484  3365  3299    1
  3485  3365  3351   ar
  3486  1220  1154    1
  3487  1220  1206    1
  3488  3794  3728    1
  3489  3794  3780   ar
  3490   362   296    1
  3491   362   348    1
  3492  2078  2012    1
  3493  2078  2064   ar
  3494  2936  2870    1
  3495  2936  2922    1
  3496  2507  2441    1
  3497  2507  2493   ar
  3498   791   725    1
  3499   791   777    1
  3500  1649  1583    1
  3501  1649  1635    1
  3502  2487  2480   ar
  3503   771   764   ar
  3504  3345  3338   ar
  3505   342   335    1
  3506  3774  3767   ar
  3507  2058  2051   ar
  3508  1200  1193   ar
  3509  2916  2909    1
  3510  1629  1622    1
  3511  3780  3786    1
  3512  2922  2928    2
  3513   348   354    2
  3514   777   783    2
  3515  2493  2499    1
  3516  3351  3357    1
  3517  1635  1641    2
  3518  2064  2070    1
  3519  1206  1212    2
  3520  2042  2075    1
  3521  2471  2504    1
  3522  1184  1217    1
  3523   755   788    1
  3524  1613  1646    1
  3525  3329  3362    1
  3526  3758  3791    1
  3527   326   359    1
  3528  2900  2933    1
  3529  1632  1646   ar
  3530  1632  1656   ar
  3531  3348  3362   ar
  3532  3348  3372   ar
  3533  2490  2504   ar
  3534  2490  2514   ar
  3535  1203  1217   ar
  3536  1203  1227   ar
  3537  3777  3791   ar
  3538  3777  3801   ar
  3539  2061  2075   ar
  3540  2061  2085   ar
  3541  2919  2933   ar
  3542  2919  2943   ar
  3543   345   359   ar
  3544   345   369   ar
  3545   774   788   ar
  3546   774   798   ar
  3547  1591  1656    1
  3548  3307  3372    1
  3549  3736  3801    1
  3550   733   798    1
  3551  2878  2943    1
  3552  2449  2514    1
  3553   304   369    1
  3554  2020  2085    1
  3555  1162  1227    1
  3556  3344  3313    1
  3557  3344  3771   ar
  3558  1199  1168    1
  3559  2486  2455    1
  3560  1628  1597    1
  3561  1628  2055   ar
  3562   770   739    1
  3563   770  1197   ar
  3564  2057  2026    1
  3565  2057  2484   ar
  3566   341   310    1
  3567   341   768   ar
  3568  3773  3742    1
  3569  2915  2884    1
  3570  2915  3342   ar
  3571  1180  1235    1
  3572   322   377    1
  3573  2896  2951    1
  3574   751   806    1
  3575  3325  3380    1
  3576  1609  1664    1
  3577  3754  3809    1
  3578  2467  2522    1
  3579  2038  2093    1
  3580  3362  3373   ar
  3581  3791  3802   ar
  3582   359   370   ar
  3583  1646  1657   ar
  3584  2933  2944   ar
  3585  2504  2515   ar
  3586  2075  2086   ar
  3587   788   799   ar
  3588  1217  1228   ar
  3589  2053  2093    1
  3590  2053  3347   ar
  3591  1624  1664    1
  3592  1624  2918   ar
  3593  2482  2522    1
  3594  2482  3776   ar
  3595  2911  2951    1
  3596   766   806    1
  3597   766  2060   ar
  3598  3340  3380    1
  3599   337   377    1
  3600   337  1631   ar
  3601  3769  3809    1
  3602  1195  1235    1
  3603  1195  2489   ar
  3604  2085  2076   ar
  3605  2514  2505   ar
  3606   369   360   ar
  3607  1656  1647   ar
  3608  2943  2934   ar
  3609  3801  3792   ar
  3610   798   789   ar
  3611  3372  3363   ar
  3612  1227  1218   ar
  3613  1192  1202    2
  3614  1192  1188    1
  3615  2908  2918   ar
  3616  2908  2904    1
  3617  3337  3347   ar
  3618  3337  3333    1
  3619   763   773    2
  3620   763   759    1
  3621  1621  1631   ar
  3622  1621  1617    1
  3623   334   344    2
  3624   334   330    1
  3625  3766  3776   ar
  3626  3766  3762    1
  3627  2479  2489   ar
  3628  2479  2475    1
  3629  2050  2060   ar
  3630  2050  2046    1
  3631  3357  3399    1
  3632  3357  3404    1
  3633   354   396    1
  3634   354   401    1
  3635   783   825    1
  3636   783   830    1
  3637  1212  1254    1
  3638  1212  1259    1
  3639  2928  2970    1
  3640  2928  2975    1
  3641  2499  2541    1
  3642  2499  2546    1
  3643  1641  1683    1
  3644  1641  1688    1
  3645  3786  3828    1
  3646  3786  3833    1
  3647  2070  2112    1
  3648  2070  2117    1
  3649   335   339    2
  3650   335   331    1
  3651  2909  2913    2
  3652  2909  2905    1
  3653  3338  3342   ar
  3654  3338  3334    1
  3655  1622  1626    2
  3656  1622  1618    1
  3657  3767  3771   ar
  3658  3767  3763    1
  3659  2051  2055   ar
  3660  2051  2047    1
  3661   764   768   ar
  3662   764   760    1
  3663  2480  2484   ar
  3664  2480  2476    1
  3665  1193  1197   ar
  3666  1193  1189    1
  3667  2951  2895    1
  3668  2093  2037    1
  3669  3380  3324    1
  3670   806   750    1
  3671  1235  1179    1
  3672   377   321    1
  3673  3809  3753    1
  3674  1664  1608    1
  3675  2522  2466    1
  3676  2112  2009    1
  3677  1254  1151    1
  3678  2541  2438    1
  3679  2970  2867    1
  3680  3828  3725    1
  3681  1683  1580    1
  3682  3399  3296    1
  3683   396   293    1
  3684   825   722    1
  3685   344   311    1
  3686  1631  1598    1
  3687  2060  2027    1
  3688  1202  1169    1
  3689   773   740    1
  3690  2489  2456    1
  3691  2918  2885    1
  3692  3347  3314    1
  3693  3776  3743    1
  3694  2546  2434    1
  3695  1688  1576    1
  3696  2975  2863    1
  3697  3833  3721    1
  3698  1259  1147    1
  3699  2117  2005    1
  3700  3404  3292    1
  3701   401   289    1
  3702   830   718    1
  3703  2096  2046    1
  3704  2096  2009    1
  3705   380   330    1
  3706   380   293    1
  3707  2525  2475    1
  3708  2525  2438    1
  3709  2954  2904    1
  3710  2954  2867    1
  3711  3383  3333    1
  3712  3383  3296    1
  3713  1238  1188    1
  3714  1238  1151    1
  3715  1667  1617    1
  3716  1667  1580    1
  3717   809   759    1
  3718   809   722    1
  3719  3812  3762    1
  3720  3812  3725    1
  3721   339   378    1
  3722  1197  1236    1
  3723  2913  2952    1
  3724  3771  3810    1
  3725  3342  3381    1
  3726   768   807    1
  3727  1626  1665    1
  3728  2055  2094    1
  3729  2484  2523    1
  3730  2944  2879    1
  3731  2944  2920   ar
  3732  2086  2021    1
  3733  2086  2062   ar
  3734   370   305    1
  3735   370   346   ar
  3736  1657  1592    1
  3737  1657  1633   ar
  3738  3373  3308    1
  3739  3373  3349   ar
  3740  2515  2450    1
  3741  2515  2491   ar
  3742  1228  1163    1
  3743  1228  1204   ar
  3744  3802  3737    1
  3745  3802  3778   ar
  3746   799   734    1
  3747   799   775   ar
  3748  2958  2905    1
  3749  2958  2863    1
  3750   384   331    1
  3751   384   289    1
  3752  2529  2476    1
  3753  2529  2434    1
  3754   813   760    1
  3755   813   718    1
  3756  1242  1189    1
  3757  1242  1147    1
  3758  3816  3763    1
  3759  3816  3721    1
  3760  3387  3334    1
  3761  3387  3292    1
  3762  2100  2047    1
  3763  2100  2005    1
  3764  1671  1618    1
  3765  1671  1576    1
  3766  2505  2491   ar
  3767  2505  2440    1
  3768  3792  3778   ar
  3769  3792  3727    1
  3770   789   775   ar
  3771   789   724    1
  3772  2076  2062   ar
  3773  2076  2011    1
  3774  2934  2920   ar
  3775  2934  2869    1
  3776   360   346   ar
  3777   360   295    1
  3778  3363  3349   ar
  3779  3363  3298    1
  3780  1218  1204   ar
  3781  1218  1153    1
  3782  1647  1633   ar
  3783  1647  1582    1
  3784  3333  3389    1
  3785  2904  2960    1
  3786  1617  1673    1
  3787  3762  3818    1
  3788   330   386    1
  3789  1188  1244    1
  3790   759   815    1
  3791  2475  2531    1
  3792  2046  2102    1
  3793  3334  3384    1
  3794  2047  2097    1
  3795  2476  2526    1
  3796   331   381    1
  3797  1618  1668    1
  3798  3763  3813    1
  3799  2905  2955    1
  3800   760   810    1
  3801  1189  1239    1
  3802  2491  2470    1
  3803   346   325    1
  3804  1633  1612    1
  3805  2062  2041    1
  3806  3349  3328    1
  3807  1204  1183    1
  3808  2920  2899    1
  3809   775   754    1
  3810  3778  3757    1
  3811  3381  3326    1
  3812  3381  3327    1
  3813  3810  3755    1
  3814  3810  3756    1
  3815  2952  2897    1
  3816  2952  2898    1
  3817   807   752    1
  3818   807   753    1
  3819  1236  1181    1
  3820  1236  1182    1
  3821   378   323    1
  3822   378   324    1
  3823  1665  1610    1
  3824  1665  1611    1
  3825  2094  2039    1
  3826  2094  2040    1
  3827  2523  2468    1
  3828  2523  2469    1
  3829   722   837    1
  3830   722   817    1
  3831   722   819    1
  3832  2438  2553    1
  3833  2438  2533    1
  3834  2438  2535    1
  3835  2009  2124    1
  3836  2009  2104    1
  3837  2009  2106    1
  3838  3296  3411    1
  3839  3296  3391    1
  3840  3296  3393    1
  3841  1580  1695    1
  3842  1580  1675    1
  3843  1580  1677    1
  3844   293   408    1
  3845   293   388    1
  3846   293   390    1
  3847  3725  3840    1
  3848  3725  3820    1
  3849  3725  3822    1
  3850  2867  2982    1
  3851  2867  2962    1
  3852  2867  2964    1
  3853  1151  1266    1
  3854  1151  1246    1
  3855  1151  1248    1
  3856   718   822    1
  3857   718   820    1
  3858  2863  2967    1
  3859  2863  2965    1
  3860  3292  3396    1
  3861  3292  3394    1
  3862   289   393    1
  3863   289   391    1
  3864  1147  1251    1
  3865  1147  1249    1
  3866  1576  1680    1
  3867  1576  1678    1
  3868  2434  2538    1
  3869  2434  2536    1
  3870  3721  3825    1
  3871  3721  3823    1
  3872  2005  2109    1
  3873  2005  2107    1
  3874   386   287    1
  3875  1673  1574    1
  3876   815   716    1
  3877  2102  2003    1
  3878  3389  3290    1
  3879  2531  2432    1
  3880  1244  1145    1
  3881  2960  2861    1
  3882  3818  3719    1
  3883   810   721    1
  3884  1668  1579    1
  3885   381   292    1
  3886  1239  1150    1
  3887  3813  3724    1
  3888  2097  2008    1
  3889  2526  2437    1
  3890  3384  3295    1
  3891  2955  2866    1
  3892   748   805    1
  3893  3322  3379    1
  3894   319   376    1
  3895  1606  1663    1
  3896  1177  1234    1
  3897  2893  2950    1
  3898  2035  2092    1
  3899  3751  3808    1
  3900  2464  2521    1
  3901  1695  1605    1
  3902  3840  3750    1
  3903   837   747    1
  3904  2124  2034    1
  3905   408   318    1
  3906  3411  3321    1
  3907  2553  2463    1
  3908  1266  1176    1
  3909  2982  2892    1
  3910  2533  2432    1
  3911   388   287    1
  3912  2104  2003    1
  3913  3391  3290    1
  3914   817   716    1
  3915  2962  2861    1
  3916  1675  1574    1
  3917  3820  3719    1
  3918  1246  1145    1
  3919  1680  1579    1
  3920  2967  2866    1
  3921  2109  2008    1
  3922   393   292    1
  3923  3825  3724    1
  3924  1251  1150    1
  3925   822   721    1
  3926  3396  3295    1
  3927  2538  2437    1
  3928  1607  1663    1
  3929   320   376    1
  3930  3752  3808    1
  3931  2894  2950    1
  3932  2036  2092    1
  3933  1178  1234    1
  3934   749   805    1
  3935  3323  3379    1
  3936  2465  2521    1
  3937  3379  3374    1
  3938  2521  2516    1
  3939   805   800    1
  3940  1234  1229    1
  3941  2092  2087    1
  3942  2950  2945    1
  3943  3808  3803    1
  3944   376   371    1
  3945  1663  1658    1
  3946  3393  3290    1
  3947   390   287    1
  3948  1677  1574    1
  3949   819   716    1
  3950  1248  1145    1
  3951  2535  2432    1
  3952  2106  2003    1
  3953  3822  3719    1
  3954  2964  2861    1
  3955   820   721    1
  3956  3823  3724    1
  3957  2965  2866    1
  3958  3394  3295    1
  3959   391   292    1
  3960  2536  2437    1
  3961  2107  2008    1
  3962  1249  1150    1
  3963  1678  1579    1
  3964   412   415    1
  3965  2128  2131    1
  3966  3844  3847    1
  3967  2986  2989    1
  3968  3415  3418    1
  3969   841   844    1
  3970  1699  1702    1
  3971  1270  1273    1
  3972  2557  2560    1
  3973  1587  1653    1
  3974  2445  2511    1
  3975  3303  3369    1
  3976   729   795    1
  3977  1158  1224    1
  3978  3732  3798    1
  3979  2874  2940    1
  3980   300   366    1
  3981  2016  2082    1
  3982  1589  1660    1
  3983   731   802    1
  3984  2018  2089    1
  3985  3305  3376    1
  3986  1160  1231    1
  3987  3734  3805    1
  3988   302   373    1
  3989  2447  2518    1
  3990  2876  2947    1
  3991  2443  2509    1
  3992  2014  2080    1
  3993  1585  1651    1
  3994  1156  1222    1
  3995   298   364    1
  3996  3301  3367    1
  3997   727   793    1
  3998  2872  2938    1
  3999  3730  3796    1
  4000  3719  3836    1
  4001  3719  3838    1
  4002   287   404    1
  4003   287   406    1
  4004  1574  1691    1
  4005  1574  1693    1
  4006  1145  1262    1
  4007  1145  1264    1
  4008  2003  2120    1
  4009  2003  2122    1
  4010   716   833    1
  4011   716   835    1
  4012  2861  2978    1
  4013  2861  2980    1
  4014  3290  3407    1
  4015  3290  3409    1
  4016  2432  2549    1
  4017  2432  2551    1
  4018  2866  2973    1
  4019  2866  2971    1
  4020  1579  1686    1
  4021  1579  1684    1
  4022  3724  3831    1
  4023  3724  3829    1
  4024  2008  2115    1
  4025  2008  2113    1
  4026   292   399    1
  4027   292   397    1
  4028   721   828    1
  4029   721   826    1
  4030  1150  1257    1
  4031  1150  1255    1
  4032  3295  3402    1
  4033  3295  3400    1
  4034  2437  2544    1
  4035  2437  2542    1
  4036   426   425    1
  4037  2571  2570    1
  4038  1284  1283    1
  4039  3858  3857    1
  4040  2142  2141    1
  4041  3429  3428    1
  4042   855   854    1
  4043  1713  1712    1
  4044  3000  2999    1
  4045   414   418    1
  4046  1272  1276    1
  4047   843   847    1
  4048  2559  2563    1
  4049  3417  3421    1
  4050  2988  2992    1
  4051  2130  2134    1
  4052  3846  3850    1
  4053  1701  1705    1
  4054  3369  2087    1
  4055  1653   371    1
  4056  3798  2516    1
  4057  2940  1658    1
  4058  2511  1229    1
  4059  2082   800    1
  4060  2131  2129    2
  4061  2131  2137    1
  4062  3847  3845    2
  4063  3847  3853    1
  4064  2989  2987    2
  4065  2989  2995    1
  4066  1702  1700    2
  4067  1702  1708    1
  4068   415   413    2
  4069   415   421    1
  4070  1273  1271    2
  4071  1273  1279    1
  4072  2560  2558    2
  4073  2560  2566    1
  4074  3418  3416    2
  4075  3418  3424    1
  4076   844   842    2
  4077   844   850    1
  4078  3367  3805    1
  4079   364   802    1
  4080  1651  2089    1
  4081  2938  3376    1
  4082  2080  2518    1
  4083   793  1231    1
  4084  3426  3421    1
  4085  1281  1276    1
  4086  3855  3850    1
  4087  2997  2992    1
  4088   423   418    1
  4089  2139  2134    1
  4090   852   847    1
  4091  2568  2563    1
  4092  1710  1705    1
  4093  2985  2987    1
  4094   411   413    1
  4095  3843  3845    1
  4096   840   842    1
  4097  1269  1271    1
  4098  3414  3416    1
  4099  2556  2558    1
  4100  1698  1700    1
  4101  2127  2129    1
  4102  1276  1283    1
  4103  1276  1277    1
  4104   418   425    1
  4105   418   419    1
  4106  3850  3857    1
  4107  3850  3851    1
  4108   847   854    1
  4109   847   848    1
  4110  2134  2141    1
  4111  2134  2135    1
  4112  2992  2999    1
  4113  2992  2993    1
  4114  3421  3428    1
  4115  3421  3422    1
  4116  2563  2570    1
  4117  2563  2564    1
  4118  1705  1712    1
  4119  1705  1706    1
  4120  3857  3853    1
  4121  3857  3861    1
  4122  2141  2137    1
  4123  2141  2145    1
  4124  2999  2995    1
  4125  2999  3003    1
  4126  1712  1708    1
  4127  1712  1716    1
  4128   854   850    1
  4129   854   858    1
  4130  2570  2566    1
  4131  2570  2574    1
  4132   425   421    1
  4133   425   429    1
  4134  3428  3424    1
  4135  3428  3432    1
  4136  1283  1279    1
  4137  1283  1287    1
  4138  3416  3420    1
  4139  2129  2133    1
  4140  1271  1275    1
  4141   842   846    1
  4142   413   417    1
  4143  2987  2991    1
  4144  2558  2562    1
  4145  1700  1704    1
  4146  3845  3849    1
  4147  2137  2140    1
  4148  2995  2998    1
  4149  2566  2569    1
  4150  3424  3427    1
  4151   421   424    1
  4152  3853  3856    1
  4153  1279  1282    1
  4154  1708  1711    1
  4155   850   853    1
  4156   846   853    1
  4157   846   849    1
  4158   417   424    1
  4159   417   420    1
  4160  2991  2998    1
  4161  2991  2994    1
  4162  2562  2569    1
  4163  2562  2565    1
  4164  1704  1711    1
  4165  1704  1707    1
  4166  3849  3856    1
  4167  3849  3852    1
  4168  3420  3427    1
  4169  3420  3423    1
  4170  1275  1282    1
  4171  1275  1278    1
  4172  2133  2140    1
  4173  2133  2136    1
  4174   424   428    1
  4175   853   857    1
  4176  1711  1715    1
  4177  2998  3002    1
  4178  2569  2573    1
  4179  3427  3431    1
  4180  1282  1286    1
  4181  3856  3860    1
  4182  2140  2144    1
  4183  2138  2136    1
  4184   422   420    1
  4185  2567  2565    1
  4186  3854  3852    1
  4187  3425  3423    1
  4188   851   849    1
  4189  1280  1278    1
  4190  1709  1707    1
  4191  2996  2994    1
  4192  2565  2561    1
  4193  2565  2572    1
  4194  3423  3419    1
  4195  3423  3430    1
  4196  3852  3848    1
  4197  3852  3859    1
  4198  2994  2990    1
  4199  2994  3001    1
  4200   849   845    1
  4201   849   856    1
  4202  2136  2132    1
  4203  2136  2143    1
  4204  1278  1274    1
  4205  1278  1285    1
  4206  1707  1703    1
  4207  1707  1714    1
  4208   420   416    1
  4209   420   427    1
