@<TRIPOS>MOLECULE
image0
 3861 4179 0 0 0
SMALL
GASTEIGER

@<TRIPOS>ATOM
      1 TI         -2.8684    2.1155   11.2652 Ti      1  UNL1        0.0000
      2 TI          7.8027    5.3833    1.8444 Ti      1  UNL1        0.0000
      3 TI          1.3526   -1.6735    9.4170 Ti      1  UNL1        0.0000
      4 TI          2.5117    7.5426    3.6484 Ti      1  UNL1        0.0000
      5 TI          1.4446    9.1874    1.7520 Ti      1  UNL1        0.0000
      6 TI          3.2594   -1.8643   11.3595 Ti      1  UNL1        0.0000
      7 TI         -1.8699    0.4160    9.3660 Ti      1  UNL1        0.0000
      8 TI          5.8159    5.6142    3.7033 Ti      1  UNL1        0.0000
      9 H           3.7469    1.6527    8.5834 H       1  UNL1        0.0000
     10 H          -7.0248   10.1428    6.4782 H       1  UNL1        0.0000
     11 H           4.4315   11.0107    4.6503 H       1  UNL1        0.0000
     12 H          -2.5037    6.0280   11.0484 H       1  UNL1        0.0000
     13 H           8.7487    1.5074    2.1552 H       2  UNL2        0.0000
     14 H          -6.8016    1.2219   10.9036 H       1  UNL1        0.0000
     15 H          11.1141    7.5039    2.0291 H      14  UNL14       0.0000
     16 H           4.3727   -5.8619   10.9625 H       1  UNL1        0.0000
     17 H          -2.5890    8.4562    2.0957 H       1  UNL1        0.0000
     18 H           4.6569    3.2042    6.8269 H       1  UNL1        0.0000
     19 H          -0.0453    3.6704    8.4060 H       1  UNL1        0.0000
     20 H          12.4409   -1.8282    6.3785 H       1  UNL1        0.0000
     21 H          -2.3273    0.3319   12.9842 H       1  UNL1        0.0000
     22 H           5.9273    5.0775    0.1546 H       1  UNL1        0.0000
     23 H           3.7614   -2.5066    5.8447 H       1  UNL1        0.0000
     24 H           0.7456    9.3142    7.2795 H       1  UNL1        0.0000
     25 H          -6.0599    3.6612    9.0374 H       1  UNL1        0.0000
     26 H          10.6412    3.3934    4.1322 H       1  UNL1        0.0000
     27 H          -3.7285    2.2987    5.6889 H       1  UNL1        0.0000
     28 H          -1.7040   10.9034    4.1249 H       1  UNL1        0.0000
     29 H           1.7334   12.3010    2.6096 H       1  UNL1        0.0000
     30 H           8.6680   -0.5172    3.3557 H       2  UNL2        0.0000
     31 H           4.6066    7.2974    2.2978 H       1  UNL1        0.0000
     32 H           0.2155    0.1346   10.7192 H       1  UNL1        0.0000
     33 H           7.4152    0.2188    9.7284 H       1  UNL1        0.0000
     34 H           5.9555   -0.3025   10.4833 H       1  UNL1        0.0000
     35 H           7.8285    4.6710    8.6325 H       1  UNL1        0.0000
     36 H           7.2376    5.0115    7.0176 H       1  UNL1        0.0000
     37 H           7.0981   -4.7498    9.5342 H       1  UNL1        0.0000
     38 H           5.7840   -3.6950   10.0002 H       1  UNL1        0.0000
     39 H           1.4114    1.9116    9.3560 H       1  UNL1        0.0000
     40 H           0.8638    5.2270    6.6485 H       1  UNL1        0.0000
     41 H           5.7409    9.0694    3.8453 H       1  UNL1        0.0000
     42 H           7.9990    8.6100    4.7446 H       1  UNL1        0.0000
     43 C           8.4222    4.6592    4.7037 C.3     1  UNL1        0.0000
     44 C          -3.8533    2.3467    8.4239 C.3     1  UNL1        0.0000
     45 C           3.9615   -2.5926    8.4766 C.3     1  UNL1        0.0000
     46 C           0.5135    9.4434    4.6213 C.3     1  UNL1        0.0000
     47 C           9.3443    4.0852    5.6930 C.ar    1  UNL1        0.0000
     48 C          -4.8119    2.9401    7.4529 C.2     1  UNL1        0.0000
     49 C           4.9172   -3.1727    7.5233 C.2     1  UNL1        0.0000
     50 C          -0.3927   10.0576    5.6269 C.ar    1  UNL1        0.0000
     51 C           9.1009    4.1498    7.1009 C.ar    1  UNL1        0.0000
     52 C          -4.5992    2.8294    6.0635 C.3     1  UNL1        0.0000
     53 C           6.0750   -3.8938    7.9691 C.2     1  UNL1        0.0000
     54 C          -1.5161   10.7925    5.1891 C.ar    1  UNL1        0.0000
     55 C          -0.1248    9.8942    6.9801 C.ar    1  UNL1        0.0000
     56 C           4.6573   -3.0476    6.1410 C.3     1  UNL1        0.0000
     57 C          10.4989    3.4267    5.2100 C.ar    1  UNL1        0.0000
     58 C          -5.9327    3.5932    7.9586 C.2     1  UNL1        0.0000
     59 C           2.8136    4.3074    6.6396 C.ar    1  UNL1        0.0000
     60 C           1.8020    2.5801    8.5908 C.ar    1  UNL1        0.0000
     61 C           6.1613    9.7262    4.6051 C.ar    1  UNL1        0.0000
     62 C          -1.7301   -2.9447    6.5282 C.3     1  UNL1        0.0000
     63 C           8.7150    1.5883    0.0113 C.3     2  UNL2        0.0000
     64 C           1.8390   13.1474    0.0887 C.2     1  UNL1        0.0000
     65 C           6.6841    0.1954   12.9898 C.ar    1  UNL1        0.0000
     66 C          -6.7198    1.2718   13.0467 C.2     1  UNL1        0.0000
     67 C           3.3505    5.2245    5.6056 C.3     1  UNL1        0.0000
     68 C          -1.1450   -2.0334    7.5402 C.3     1  UNL1        0.0000
     69 C           4.2160   -4.2016   13.1012 C.2     1  UNL1        0.0000
     70 C           1.7960   11.7116    0.0497 C.2     1  UNL1        0.0000
     71 C           5.4088   -0.4663   13.0430 C.3     1  UNL1        0.0000
     72 C          -5.3326    1.7347   13.0640 C.2     1  UNL1        0.0000
     73 C           1.4828    4.4426    7.0787 C.ar    1  UNL1        0.0000
     74 C           3.1252    2.4368    8.1546 C.ar    1  UNL1        0.0000
     75 C           5.4240   10.8276    5.0587 C.ar    1  UNL1        0.0000
     76 C          -8.0188   10.3196    6.0734 C.3     1  UNL1        0.0000
     77 C           8.7845    0.9195    1.2398 C.2     2  UNL2        0.0000
     78 C          -2.5081    6.6153   11.9630 C.ar    1  UNL1        0.0000
     79 C          -4.3605    7.7305    1.1102 C.2     1  UNL1        0.0000
     80 C          -7.3514    1.0220   11.8218 C.3     1  UNL1        0.0000
     81 C           7.4413    9.4696    5.1127 C.ar    1  UNL1        0.0000
     82 C          12.9911   -2.6946    6.0174 C.3     1  UNL1        0.0000
     83 C           3.6326    3.2980    7.1812 C.ar    1  UNL1        0.0000
     84 C           0.9806    3.5787    8.0529 C.ar    1  UNL1        0.0000
     85 C           7.3617    0.4896   11.7534 C.ar    1  UNL1        0.0000
     86 C          -3.0892    8.2550    1.1525 C.2     1  UNL1        0.0000
     87 C           4.4380   -6.3885   11.9106 C.3     1  UNL1        0.0000
     88 C           8.8554   -0.4796    1.3189 C.2     2  UNL2        0.0000
     89 N           8.9382   -1.0777    2.5559 N.pl3   2  UNL2        0.0000
     90 N           6.7825    0.2882   10.5174 N.pl3   1  UNL1        0.0000
     91 N           8.0012    4.7573    7.6391 N.pl3   1  UNL1        0.0000
     92 N           6.4187   -4.0420    9.2844 N.pl3   1  UNL1        0.0000
     93 O           7.2345    5.0226    5.0765 O.3     1  UNL1        0.0000
     94 O          -3.0539    1.4237    8.0200 O.3     1  UNL1        0.0000
     95 O           4.3452   -2.4564    9.6957 O.3     1  UNL1        0.0000
     96 O           0.4260    9.8719    3.4226 O.3     1  UNL1        0.0000
     97 O           1.3190    8.5131    5.0021 O.3     1  UNL1        0.0000
     98 O           2.7767   -2.2647    8.0781 O.3     1  UNL1        0.0000
     99 O           8.8242    4.7557    3.4898 O.3     1  UNL1        0.0000
    100 O          -3.9038    2.7798    9.6244 O.3     1  UNL1        0.0000
    101 O           6.1567    4.4091    2.5052 O.3     1  UNL1        0.0000
    102 O          -1.3679    1.9937   10.1096 O.3     1  UNL1        0.0000
    103 O           7.0178    6.7272    2.9532 O.3     1  UNL1        0.0000
    104 O          -3.0562    0.2085   10.6096 O.3     1  UNL1        0.0000
    105 O           1.6596   -2.8372   10.6743 O.3     1  UNL1        0.0000
    106 O           2.9694    9.1219    2.9093 O.3     1  UNL1        0.0000
    107 O           2.5316   -0.5433   10.2080 O.3     1  UNL1        0.0000
    108 O           1.3225    7.3070    2.3989 O.3     1  UNL1        0.0000
    109 O           4.5751    5.0877    5.2443 O.3     1  UNL1        0.0000
    110 O          -1.8362   -1.0225    7.9235 O.3     1  UNL1        0.0000
    111 O           4.0664   -3.6099   11.9620 O.2     1  UNL1        0.0000
    112 O           1.7435   11.0064    1.1444 O.2     1  UNL1        0.0000
    113 O           4.7709   -0.7955   11.9563 O.3     1  UNL1        0.0000
    114 O          -0.4275    9.0940    1.0941 O.3     1  UNL1        0.0000
    115 O           0.0289   -2.2879    7.9912 O.3     1  UNL1        0.0000
    116 O           2.5743    6.1196    5.1176 O.3     1  UNL1        0.0000
    117 O           9.1992    6.4527    1.0833 O.3     1  UNL1        0.0000
    118 O          -4.7481    1.9890   11.9440 O.2     1  UNL1        0.0000
    119 O           8.5001    3.6723    1.1133 O.3     1  UNL1        0.0000
    120 O          -2.5429    3.8491   12.0151 O.3     1  UNL1        0.0000
    121 O           4.2691    6.7356    3.0197 O.3     1  UNL1        0.0000
    122 O          -0.1470   -0.4361   10.0169 O.3     1  UNL1        0.0000
    123 O           6.7480    5.6001    0.0716 O.3     1  UNL1        0.0000
    124 O          -2.2383    1.3023   13.0448 O.3     1  UNL1        0.0000
    125 H           0.1321    5.3855   12.3532 H       3  UNL3        0.0000
    126 H           1.8524    4.0479   10.6060 H       3  UNL3        0.0000
    127 C           0.9252    4.6713   12.5385 C.2     3  UNL3        0.0000
    128 H           4.4229    3.7484   10.4885 H       3  UNL3        0.0000
    129 C           1.7654    4.0104   11.6838 C.2     3  UNL3        0.0000
    130 H           4.3469   12.8590    1.7375 H       2  UNL2        0.0000
    131 N           5.5522   11.4941    0.7089 N.2     2  UNL2        0.0000
    132 C           4.7889    3.1516   11.3334 C.3     3  UNL3        0.0000
    133 H           5.2471    3.8228   12.0704 H       3  UNL3        0.0000
    134 C           4.8852   11.9301    1.9401 C.3     2  UNL2        0.0000
    135 N           2.5715    3.1917   12.4564 N.pl3   3  UNL3        0.0000
    136 H           4.1753   11.1587    2.2624 H       2  UNL2        0.0000
    137 H           5.5591    2.4651   10.9544 H       3  UNL3        0.0000
    138 C           6.5504   10.5933    0.6399 C.2     2  UNL2        0.0000
    139 C           3.6652    2.3302   11.9568 C.3     3  UNL3        0.0000
    140 H           3.2304    1.6168   11.2434 H       3  UNL3        0.0000
    141 H           5.6365   12.1009    2.7163 H       2  UNL2        0.0000
    142 H           7.0076   10.0878    1.4820 H       2  UNL2        0.0000
    143 H           4.0202    1.7522   12.8174 H       3  UNL3        0.0000
    144 TI         -7.1809   -5.1237   24.3754 Ti      1  UNL1        0.0000
    145 TI          3.4902   -1.8559   14.9547 Ti      1  UNL1        0.0000
    146 TI         -2.9599   -8.9127   22.5273 Ti      1  UNL1        0.0000
    147 TI         -1.8009    0.3034   16.7587 Ti      1  UNL1        0.0000
    148 TI         -2.8679    1.9482   14.8622 Ti      1  UNL1        0.0000
    149 TI         -1.0531   -9.1035   24.4698 Ti      1  UNL1        0.0000
    150 TI         -6.1824   -6.8232   22.4763 Ti      1  UNL1        0.0000
    151 TI          1.5034   -1.6250   16.8136 Ti      1  UNL1        0.0000
    152 H          -0.5656   -5.5865   21.6937 H       1  UNL1        0.0000
    153 H         -11.3374    2.9036   19.5885 H       1  UNL1        0.0000
    154 H           0.1190    3.7715   17.7606 H       1  UNL1        0.0000
    155 H          -6.8162   -1.2112   24.1586 H       1  UNL1        0.0000
    156 H           4.4362   -5.7318   15.2654 H       1  UNL1        0.0000
    157 H         -11.1141   -6.0173   24.0139 H       1  UNL1        0.0000
    158 H           6.8016    0.2647   15.1394 H       1  UNL1        0.0000
    159 H           0.0602  -13.1011   24.0728 H       1  UNL1        0.0000
    160 H          -6.9016    1.2170   15.2060 H       1  UNL1        0.0000
    161 H           0.3444   -4.0350   19.9372 H       1  UNL1        0.0000
    162 H          -4.3578   -3.5688   21.5163 H       1  UNL1        0.0000
    163 H           8.1283   -9.0674   19.4887 H       1  UNL1        0.0000
    164 H          -6.6398   -6.9073   26.0944 H       1  UNL1        0.0000
    165 H           1.6147   -2.1617   13.2649 H       1  UNL1        0.0000
    166 H          -0.5511   -9.7458   18.9550 H       1  UNL1        0.0000
    167 H          -3.5669    2.0750   20.3897 H       1  UNL1        0.0000
    168 H         -10.3725   -3.5780   22.1477 H       1  UNL1        0.0000
    169 H           6.3287   -3.8458   17.2425 H       1  UNL1        0.0000
    170 H          -8.0411   -4.9405   18.7991 H       1  UNL1        0.0000
    171 H          -6.0165    3.6642   17.2352 H       1  UNL1        0.0000
    172 H          -2.5791    5.0618   15.7198 H       1  UNL1        0.0000
    173 H           4.3555   -7.7564   16.4660 H       1  UNL1        0.0000
    174 H           0.2941    0.0582   15.4080 H       1  UNL1        0.0000
    175 H          -4.0970   -7.1046   23.8294 H       1  UNL1        0.0000
    176 H           3.1026   -7.0204   22.8387 H       1  UNL1        0.0000
    177 H           1.6430   -7.5417   23.5936 H       1  UNL1        0.0000
    178 H           3.5159   -2.5682   21.7428 H       1  UNL1        0.0000
    179 H           2.9250   -2.2277   20.1279 H       1  UNL1        0.0000
    180 H           2.7855  -11.9890   22.6444 H       1  UNL1        0.0000
    181 H           1.4714  -10.9342   23.1105 H       1  UNL1        0.0000
    182 H          -2.9011   -5.3276   22.4663 H       1  UNL1        0.0000
    183 H          -3.4488   -2.0122   19.7588 H       1  UNL1        0.0000
    184 H           1.4284    1.8302   16.9556 H       1  UNL1        0.0000
    185 H           3.6865    1.3708   17.8549 H       1  UNL1        0.0000
    186 C           4.1097   -2.5800   17.8139 C.3     1  UNL1        0.0000
    187 C          -8.1659   -4.8925   21.5341 C.3     1  UNL1        0.0000
    188 C          -0.3510   -9.8318   21.5868 C.3     1  UNL1        0.0000
    189 C          -3.7990    2.2042   17.7315 C.3     1  UNL1        0.0000
    190 C           5.0317   -3.1540   18.8033 C.ar    1  UNL1        0.0000
    191 C          -9.1244   -4.2991   20.5632 C.2     1  UNL1        0.0000
    192 C           0.6047  -10.4119   20.6336 C.2     1  UNL1        0.0000
    193 C          -4.7052    2.8184   18.7372 C.ar    1  UNL1        0.0000
    194 C           4.7884   -3.0894   20.2112 C.ar    1  UNL1        0.0000
    195 C          -8.9117   -4.4098   19.1738 C.3     1  UNL1        0.0000
    196 C           1.7624  -11.1330   21.0793 C.2     1  UNL1        0.0000
    197 C          -5.8286    3.5533   18.2994 C.ar    1  UNL1        0.0000
    198 C          -4.4373    2.6550   20.0904 C.ar    1  UNL1        0.0000
    199 C           0.3448  -10.2868   19.2512 C.3     1  UNL1        0.0000
    200 C           6.1864   -3.8125   18.3203 C.ar    1  UNL1        0.0000
    201 C         -10.2452   -3.6460   21.0689 C.2     1  UNL1        0.0000
    202 C          -1.4989   -2.9318   19.7498 C.ar    1  UNL1        0.0000
    203 C          -2.5105   -4.6591   21.7011 C.ar    1  UNL1        0.0000
    204 C           1.8488    2.4870   17.7154 C.ar    1  UNL1        0.0000
    205 C          -6.0426  -10.1839   19.6385 C.3     1  UNL1        0.0000
    206 C           4.4025   -5.6509   13.1216 C.2     1  UNL1        0.0000
    207 C          -2.4735    5.9082   13.1989 C.ar    1  UNL1        0.0000
    208 C           2.3715   -7.0438   26.1001 C.ar    1  UNL1        0.0000
    209 C         -11.0323   -5.9674   26.1570 C.2     1  UNL1        0.0000
    210 C          -0.9621   -2.0147   18.7159 C.3     1  UNL1        0.0000
    211 C          -5.4575   -9.2726   20.6505 C.3     1  UNL1        0.0000
    212 C          -0.0966  -11.4408   26.2114 C.2     1  UNL1        0.0000
    213 C          -2.5165    4.4724   13.1600 C.3     1  UNL1        0.0000
    214 C           1.0963   -7.7055   26.1533 C.3     1  UNL1        0.0000
    215 C          -9.6451   -5.5045   26.1743 C.2     1  UNL1        0.0000
    216 C          -2.8297   -2.7966   20.1890 C.ar    1  UNL1        0.0000
    217 C          -1.1874   -4.8024   21.2649 C.ar    1  UNL1        0.0000
    218 C           1.1114    3.5884   18.1689 C.ar    1  UNL1        0.0000
    219 C         -12.3314    3.0804   19.1837 C.3     1  UNL1        0.0000
    220 C           4.4720   -6.3197   14.3501 C.2     1  UNL1        0.0000
    221 C          -6.8207   -0.6239   25.0733 C.ar    1  UNL1        0.0000
    222 C          -8.6731    0.4913   14.2205 C.2     1  UNL1        0.0000
    223 C         -11.6639   -6.2172   24.9321 C.3     1  UNL1        0.0000
    224 C           3.1287    2.2304   18.2230 C.ar    1  UNL1        0.0000
    225 C           8.6786   -9.9338   19.1277 C.3     1  UNL1        0.0000
    226 C          -0.6799   -3.9412   20.2915 C.ar    1  UNL1        0.0000
    227 C          -3.3320   -3.6605   21.1632 C.ar    1  UNL1        0.0000
    228 C           3.0492   -6.7496   24.8637 C.ar    1  UNL1        0.0000
    229 C          -7.4017    1.0158   14.2627 C.2     1  UNL1        0.0000
    230 C           0.1254  -13.6277   25.0209 C.3     1  UNL1        0.0000
    231 C           4.5429   -7.7188   14.4292 C.2     1  UNL1        0.0000
    232 N           4.6257   -8.3169   15.6662 N.pl3   1  UNL1        0.0000
    233 N           2.4699   -6.9510   23.6277 N.pl3   1  UNL1        0.0000
    234 N           3.6886   -2.4819   20.7494 N.pl3   1  UNL1        0.0000
    235 N           2.1061  -11.2812   22.3946 N.pl3   1  UNL1        0.0000
    236 O           2.9220   -2.2166   18.1868 O.3     1  UNL1        0.0000
    237 O          -7.3665   -5.8155   21.1303 O.3     1  UNL1        0.0000
    238 O           0.0327   -9.6956   22.8060 O.3     1  UNL1        0.0000
    239 O          -3.8865    2.6327   16.5329 O.3     1  UNL1        0.0000
    240 O          -2.9936    1.2739   18.1124 O.3     1  UNL1        0.0000
    241 O          -1.5358   -9.5039   21.1883 O.3     1  UNL1        0.0000
    242 O           4.5117   -2.4835   16.6000 O.3     1  UNL1        0.0000
    243 O          -8.2163   -4.4594   22.7347 O.3     1  UNL1        0.0000
    244 O           1.8441   -2.8301   15.6155 O.3     1  UNL1        0.0000
    245 O          -5.6805   -5.2455   23.2199 O.3     1  UNL1        0.0000
    246 O           2.7052   -0.5120   16.0635 O.3     1  UNL1        0.0000
    247 O          -7.3688   -7.0307   23.7199 O.3     1  UNL1        0.0000
    248 O          -2.6529  -10.0764   23.7846 O.3     1  UNL1        0.0000
    249 O          -1.3431    1.8827   16.0195 O.3     1  UNL1        0.0000
    250 O          -1.7809   -7.7825   23.3183 O.3     1  UNL1        0.0000
    251 O          -2.9900    0.0678   15.5092 O.3     1  UNL1        0.0000
    252 O           0.2626   -2.1515   18.3546 O.3     1  UNL1        0.0000
    253 O          -6.1487   -8.2617   21.0338 O.3     1  UNL1        0.0000
    254 O          -0.2462  -10.8492   25.0723 O.2     1  UNL1        0.0000
    255 O          -2.5690    3.7672   14.2546 O.3     1  UNL1        0.0000
    256 O           0.4584   -8.0347   25.0666 O.3     1  UNL1        0.0000
    257 O          -4.7400    1.8548   14.2044 O.2     1  UNL1        0.0000
    258 O          -4.2836   -9.5271   21.1014 O.3     1  UNL1        0.0000
    259 O          -1.7383   -1.1196   18.2279 O.3     1  UNL1        0.0000
    260 O           4.8866   -0.7865   14.1936 O.3     1  UNL1        0.0000
    261 O          -9.0607   -5.2502   25.0543 O.2     1  UNL1        0.0000
    262 O           4.1876   -3.5669   14.2236 O.2     1  UNL1        0.0000
    263 O          -6.8555   -3.3901   25.1254 O.3     1  UNL1        0.0000
    264 O          -0.0434   -0.5036   16.1299 O.3     1  UNL1        0.0000
    265 O          -4.4596   -7.6753   23.1272 O.3     1  UNL1        0.0000
    266 O           2.4354   -1.6391   13.1819 O.3     1  UNL1        0.0000
    267 O          -6.5508   -5.9369   26.1551 O.3     1  UNL1        0.0000
    268 H          -4.1804   -1.8537   25.4635 H       4  UNL4        0.0000
    269 H          -2.4602   -3.1913   23.7162 H       4  UNL4        0.0000
    270 C          -3.3873   -2.5679   25.6488 C.2     4  UNL4        0.0000
    271 H           0.1103   -3.4908   23.5988 H       4  UNL4        0.0000
    272 C          -2.5472   -3.2288   24.7940 C.2     4  UNL4        0.0000
    273 H           0.0344    5.6198   14.8478 H       3  UNL3        0.0000
    274 N           1.2396    4.2549   13.8192 N.pl3   3  UNL3        0.0000
    275 C           0.4764   -4.0876   24.4437 C.3     4  UNL4        0.0000
    276 H           0.9346   -3.4164   25.1807 H       4  UNL4        0.0000
    277 C           0.5727    4.6909   15.0504 C.3     3  UNL3        0.0000
    278 N          -1.7410   -4.0475   25.5666 N.pl3   4  UNL4        0.0000
    279 H          -0.1372    3.9195   15.3727 H       3  UNL3        0.0000
    280 H           1.2465   -4.7741   24.0647 H       4  UNL4        0.0000
    281 C           2.2379    3.3541   13.7501 C.3     3  UNL3        0.0000
    282 C          -0.6474   -4.9090   25.0671 C.3     4  UNL4        0.0000
    283 H          -1.0821   -5.6224   24.3536 H       4  UNL4        0.0000
    284 H           1.3240    4.8617   15.8266 H       3  UNL3        0.0000
    285 H           2.6951    2.8486   14.5923 H       3  UNL3        0.0000
    286 H          -0.2923   -5.4870   25.9277 H       4  UNL4        0.0000
    287 TI        -11.4934  -12.3629   37.4857 Ti      1  UNL1        0.0000
    288 TI         -0.8224   -9.0951   28.0650 Ti      1  UNL1        0.0000
    289 TI         -7.2724  -16.1519   35.6375 Ti      1  UNL1        0.0000
    290 TI         -6.1134   -6.9358   29.8690 Ti      1  UNL1        0.0000
    291 TI         -7.1804   -5.2910   27.9725 Ti      1  UNL1        0.0000
    292 TI         -5.3656  -16.3427   37.5800 Ti      1  UNL1        0.0000
    293 TI        -10.4950  -14.0624   35.5866 Ti      1  UNL1        0.0000
    294 TI         -2.8091   -8.8642   29.9238 Ti      1  UNL1        0.0000
    295 H          -4.8782  -12.8257   34.8039 H       1  UNL1        0.0000
    296 H         -15.6499   -4.3356   32.6988 H       1  UNL1        0.0000
    297 H          -4.1935   -3.4677   30.8709 H       1  UNL1        0.0000
    298 H         -11.1287   -8.4504   37.2689 H       3  UNL3        0.0000
    299 H           0.1237  -12.9710   28.3757 H       1  UNL1        0.0000
    300 H         -15.4267  -13.2565   37.1242 H       1  UNL1        0.0000
    301 H           2.4890   -6.9745   28.2496 H       1  UNL1        0.0000
    302 H          -4.2524  -20.3403   37.1831 H       4  UNL4        0.0000
    303 H         -11.2141   -6.0222   28.3163 H       1  UNL1        0.0000
    304 H          -3.9682  -11.2742   33.0474 H       1  UNL1        0.0000
    305 H          -8.6704  -10.8080   34.6266 H       1  UNL1        0.0000
    306 H           3.8158  -16.3066   32.5990 H       1  UNL1        0.0000
    307 H         -10.9523  -14.1465   39.2047 H       1  UNL1        0.0000
    308 H          -2.6978   -9.4009   26.3751 H       1  UNL1        0.0000
    309 H          -4.8637  -16.9850   32.0653 H       1  UNL1        0.0000
    310 H          -7.8795   -5.1642   33.5000 H       1  UNL1        0.0000
    311 H         -14.6850  -10.8172   35.2580 H       1  UNL1        0.0000
    312 H           2.0161  -11.0850   30.3527 H       1  UNL1        0.0000
    313 H         -12.3536  -12.1797   31.9094 H       1  UNL1        0.0000
    314 H         -10.3290   -3.5750   30.3455 H       1  UNL1        0.0000
    315 H          -6.8917   -2.1774   28.8301 H       1  UNL1        0.0000
    316 H           0.0429  -14.9956   29.5763 H       1  UNL1        0.0000
    317 H          -4.0184   -7.1810   28.5183 H       1  UNL1        0.0000
    318 H          -8.4096  -14.3438   36.9397 H       1  UNL1        0.0000
    319 H          -1.2099  -14.2596   35.9489 H       1  UNL1        0.0000
    320 H          -2.6696  -14.7809   36.7038 H       1  UNL1        0.0000
    321 H          -0.7966   -9.8074   34.8530 H       1  UNL1        0.0000
    322 H          -1.3875   -9.4669   33.2382 H       1  UNL1        0.0000
    323 H          -1.5270  -19.2282   35.7547 H       1  UNL1        0.0000
    324 H          -2.8411  -18.1734   36.2207 H       1  UNL1        0.0000
    325 H          -7.2136  -12.5668   35.5766 H       1  UNL1        0.0000
    326 H          -7.7613   -9.2514   32.8691 H       1  UNL1        0.0000
    327 H          -2.8841   -5.4090   30.0659 H       1  UNL1        0.0000
    328 H          -0.6261   -5.8684   30.9651 H       1  UNL1        0.0000
    329 C          -0.2029   -9.8192   30.9242 C.3     1  UNL1        0.0000
    330 C         -12.4784  -12.1317   34.6444 C.3     1  UNL1        0.0000
    331 C          -4.6636  -17.0710   34.6971 C.3     1  UNL1        0.0000
    332 C          -8.1115   -5.0350   30.8418 C.3     1  UNL1        0.0000
    333 C           0.7192  -10.3932   31.9136 C.ar    1  UNL1        0.0000
    334 C         -13.4369  -11.5383   33.6734 C.2     1  UNL1        0.0000
    335 C          -3.7078  -17.6511   33.7439 C.2     1  UNL1        0.0000
    336 C          -9.0177   -4.4208   31.8474 C.ar    1  UNL1        0.0000
    337 C           0.4759  -10.3286   33.3215 C.ar    1  UNL1        0.0000
    338 C         -13.2243  -11.6490   32.2841 C.3     1  UNL1        0.0000
    339 C          -2.5501  -18.3722   34.1896 C.2     1  UNL1        0.0000
    340 C         -10.1412   -3.6859   31.4097 C.ar    1  UNL1        0.0000
    341 C          -8.7499   -4.5842   33.2006 C.ar    1  UNL1        0.0000
    342 C          -3.9677  -17.5261   32.3615 C.3     1  UNL1        0.0000
    343 C           1.8738  -11.0517   31.4306 C.ar    1  UNL1        0.0000
    344 C         -14.5577  -10.8852   34.1792 C.2     1  UNL1        0.0000
    345 C          -5.8115  -10.1710   32.8601 C.ar    1  UNL1        0.0000
    346 C          -6.8230  -11.8983   34.8114 C.ar    1  UNL1        0.0000
    347 C          -2.4637   -4.7522   30.8257 C.ar    1  UNL1        0.0000
    348 C         -10.3551  -17.4231   32.7488 C.3     1  UNL1        0.0000
    349 C           0.0900  -12.8901   26.2319 C.2     1  UNL1        0.0000
    350 C          -6.7860   -1.3310   26.3092 C.ar    1  UNL1        0.0000
    351 C          -1.9410  -14.2830   39.2104 C.2     1  UNL1        0.0000
    352 C         -15.3448  -13.2066   39.2673 C.2     1  UNL1        0.0000
    353 C          -5.2746   -9.2539   31.8261 C.3     1  UNL1        0.0000
    354 C          -9.7701  -16.5118   33.7608 C.3     1  UNL1        0.0000
    355 C          -4.4091  -18.6800   39.3217 C.3     1  UNL1        0.0000
    356 C          -6.8291   -2.7668   26.2702 C.3     1  UNL1        0.0000
    357 C          -3.2163  -14.9447   39.2636 C.2     1  UNL1        0.0000
    358 C         -13.9577  -12.7437   39.2845 C.2     1  UNL1        0.0000
    359 C          -7.1422  -10.0358   33.2993 C.ar    1  UNL1        0.0000
    360 C          -5.4999  -12.0416   34.3751 C.ar    1  UNL1        0.0000
    361 C          -3.2011   -3.6508   31.2792 C.ar    1  UNL1        0.0000
    362 C         -16.6439   -4.1588   32.2939 C.3     1  UNL1        0.0000
    363 C           0.1595  -13.5589   27.4604 C.2     1  UNL1        0.0000
    364 C         -11.1332   -7.8631   38.1835 C.2     3  UNL3        0.0000
    365 C         -12.9856   -6.7479   27.3308 C.2     1  UNL1        0.0000
    366 C         -15.9764  -13.4564   38.0424 C.3     1  UNL1        0.0000
    367 C          -1.1838   -5.0088   31.3332 C.ar    1  UNL1        0.0000
    368 C           4.3660  -17.1730   32.2379 C.3     1  UNL1        0.0000
    369 C          -4.9925  -11.1804   33.4017 C.ar    1  UNL1        0.0000
    370 C          -7.6445  -10.8997   34.2734 C.ar    1  UNL1        0.0000
    371 C          -1.2634  -13.9888   37.9739 C.2     1  UNL1        0.0000
    372 C         -11.7142   -6.2234   27.3730 C.2     1  UNL1        0.0000
    373 C          -4.1871  -20.8669   38.1312 C.3     5  UNL5        0.0000
    374 C           0.2304  -14.9580   27.5394 C.2     1  UNL1        0.0000
    375 N           0.3132  -15.5561   28.7764 N.pl3   1  UNL1        0.0000
    376 N          -1.8426  -14.1902   36.7380 N.pl3   1  UNL1        0.0000
    377 N          -0.6239   -9.7211   33.8596 N.pl3   1  UNL1        0.0000
    378 N          -2.2064  -18.5204   35.5049 N.pl3   1  UNL1        0.0000
    379 O          -1.3905   -9.4558   31.2971 O.3     1  UNL1        0.0000
    380 O         -11.6790  -13.0547   34.2406 O.3     1  UNL1        0.0000
    381 O          -4.2798  -16.9348   35.9163 O.3     1  UNL1        0.0000
    382 O          -8.1990   -4.6065   29.6432 O.3     1  UNL1        0.0000
    383 O          -7.3061   -5.9653   31.2227 O.3     1  UNL1        0.0000
    384 O          -5.8483  -16.7431   34.2986 O.3     1  UNL1        0.0000
    385 O           0.1992   -9.7227   29.7103 O.3     1  UNL1        0.0000
    386 O         -12.5289  -11.6986   35.8450 O.3     1  UNL1        0.0000
    387 O          -2.4684  -10.0693   28.7258 O.3     1  UNL1        0.0000
    388 O          -9.9930  -12.4847   36.3302 O.3     1  UNL1        0.0000
    389 O          -1.6073   -7.7512   29.1737 O.3     1  UNL1        0.0000
    390 O         -11.6813  -14.2699   36.8302 O.3     1  UNL1        0.0000
    391 O          -6.9654  -17.3156   36.8949 O.3     1  UNL1        0.0000
    392 O          -5.6557   -5.3565   29.1298 O.3     1  UNL1        0.0000
    393 O          -6.0934  -15.0217   36.4286 O.3     1  UNL1        0.0000
    394 O          -7.3026   -7.1714   28.6194 O.3     1  UNL1        0.0000
    395 O          -4.0500   -9.3907   31.4649 O.3     1  UNL1        0.0000
    396 O         -10.4612  -15.5009   34.1441 O.3     1  UNL1        0.0000
    397 O          -4.5587  -18.0884   38.1826 O.3     1  UNL1        0.0000
    398 O          -6.8816   -3.4720   27.3649 O.3     1  UNL1        0.0000
    399 O          -3.8541  -15.2739   38.1769 O.2     1  UNL1        0.0000
    400 O          -9.0526   -5.3844   27.3147 O.2     1  UNL1        0.0000
    401 O          -8.5962  -16.7663   34.2117 O.3     1  UNL1        0.0000
    402 O          -6.0508   -8.3588   31.3382 O.3     1  UNL1        0.0000
    403 O           0.5741   -8.0257   27.3039 O.3     1  UNL1        0.0000
    404 O         -13.3732  -12.4894   38.1645 O.2     1  UNL1        0.0000
    405 O          -0.1249  -10.8061   27.3338 O.2     1  UNL1        0.0000
    406 O         -11.1680  -10.6293   38.2357 O.3     1  UNL1        0.0000
    407 O          -4.3559   -7.7428   29.2402 O.3     1  UNL1        0.0000
    408 O          -8.7721  -14.9145   36.2375 O.3     1  UNL1        0.0000
    409 O          -1.8771   -8.8783   26.2921 O.3     1  UNL1        0.0000
    410 O         -10.8634  -13.1761   39.2653 O.3     1  UNL1        0.0000
    411 H          -8.4929   -9.0929   38.5738 H       6  UNL6        0.0000
    412 H          -6.7727  -10.4305   36.8265 H       6  UNL6        0.0000
    413 C          -7.6998   -9.8071   38.7591 C.2     6  UNL6        0.0000
    414 H          -4.2022  -10.7300   36.7090 H       6  UNL6        0.0000
    415 C          -6.8597  -10.4680   37.9043 C.2     6  UNL6        0.0000
    416 H          -4.2782   -1.6194   27.9581 H       4  UNL4        0.0000
    417 N          -3.0729   -2.9843   26.9294 N.pl3   4  UNL4        0.0000
    418 C          -3.8362  -11.3268   37.5540 C.3     6  UNL6        0.0000
    419 H          -3.3780  -10.6556   38.2909 H       6  UNL6        0.0000
    420 C          -3.7399   -2.5483   28.1606 C.3     4  UNL4        0.0000
    421 N          -6.0536  -11.2867   38.6769 N.pl3   6  UNL6        0.0000
    422 H          -4.4498   -3.3198   28.4830 H       4  UNL4        0.0000
    423 H          -3.0660  -12.0133   37.1749 H       6  UNL6        0.0000
    424 C          -2.0746   -3.8852   26.8604 C.3     4  UNL4        0.0000
    425 C          -4.9599  -12.1483   38.1774 C.3     6  UNL6        0.0000
    426 H          -5.3946  -12.8616   37.4639 H       6  UNL6        0.0000
    427 H          -2.9886   -2.3775   28.9369 H       4  UNL4        0.0000
    428 H          -1.6174   -4.3906   27.7026 H       4  UNL4        0.0000
    429 H          -4.6049  -12.7262   39.0380 H       6  UNL6        0.0000
    430 TI         -9.8903   16.4923   11.2652 Ti      1  UNL1        0.0000
    431 TI          0.7808   19.7601    1.8444 Ti      1  UNL1        0.0000
    432 TI         -5.6693   12.7033    9.4170 Ti      1  UNL1        0.0000
    433 TI         -4.5103   21.9194    3.6484 Ti      1  UNL1        0.0000
    434 TI         -5.5773   23.5642    1.7520 Ti      1  UNL1        0.0000
    435 TI         -3.7625   12.5125   11.3595 Ti      1  UNL1        0.0000
    436 TI         -8.8918   14.7928    9.3660 Ti      1  UNL1        0.0000
    437 TI         -1.2060   19.9910    3.7033 Ti      1  UNL1        0.0000
    438 H          -3.2750   16.0295    8.5834 H       1  UNL1        0.0000
    439 H         -14.0468   24.5196    6.4782 H       1  UNL1        0.0000
    440 H          -2.5904   25.3875    4.6503 H       1  UNL1        0.0000
    441 H          -9.5256   20.4048   11.0484 H       1  UNL1        0.0000
    442 H           1.7268   15.8842    2.1552 H       1  UNL1        0.0000
    443 H         -13.8235   15.5988   10.9036 H       1  UNL1        0.0000
    444 H           4.0922   21.8807    2.0291 H      18  UNL18       0.0000
    445 H          -2.6492    8.5149   10.9625 H       1  UNL1        0.0000
    446 H          -9.6110   22.8330    2.0957 H       5  UNL5        0.0000
    447 H          -2.3650   17.5810    6.8269 H       1  UNL1        0.0000
    448 H          -7.0672   18.0472    8.4060 H       1  UNL1        0.0000
    449 H           5.4189   12.5486    6.3785 H       1  UNL1        0.0000
    450 H          -9.3492   14.7087   12.9842 H       1  UNL1        0.0000
    451 H          -1.0947   19.4543    0.1546 H       1  UNL1        0.0000
    452 H          -3.2605   11.8702    5.8447 H       1  UNL1        0.0000
    453 H          -6.2764   23.6910    7.2795 H       1  UNL1        0.0000
    454 H         -13.0819   18.0380    9.0374 H       1  UNL1        0.0000
    455 H           3.6193   17.7702    4.1322 H       1  UNL1        0.0000
    456 H         -10.7505   16.6756    5.6889 H       1  UNL1        0.0000
    457 H          -8.7259   25.2802    4.1249 H       1  UNL1        0.0000
    458 H          -5.2885   26.6778    2.6096 H       1  UNL1        0.0000
    459 H           1.6461   13.8596    3.3557 H       1  UNL1        0.0000
    460 H          -2.4153   21.6742    2.2978 H       1  UNL1        0.0000
    461 H          -6.8064   14.5114   10.7192 H       1  UNL1        0.0000
    462 H           0.3932   14.5956    9.7284 H       1  UNL1        0.0000
    463 H          -1.0665   14.0743   10.4833 H       1  UNL1        0.0000
    464 H           0.8065   19.0478    8.6325 H       1  UNL1        0.0000
    465 H           0.2156   19.3883    7.0176 H       1  UNL1        0.0000
    466 H           0.0761    9.6270    9.5342 H       1  UNL1        0.0000
    467 H          -1.2380   10.6818   10.0002 H       1  UNL1        0.0000
    468 H          -5.6105   16.2884    9.3560 H       1  UNL1        0.0000
    469 H          -6.1582   19.6038    6.6485 H       1  UNL1        0.0000
    470 H          -1.2810   23.4462    3.8453 H       1  UNL1        0.0000
    471 H           0.9771   22.9868    4.7446 H       1  UNL1        0.0000
    472 C           1.4003   19.0360    4.7037 C.3     1  UNL1        0.0000
    473 C         -10.8753   16.7235    8.4239 C.3     1  UNL1        0.0000
    474 C          -3.0604   11.7842    8.4766 C.3     1  UNL1        0.0000
    475 C          -6.5084   23.8202    4.6213 C.3     1  UNL1        0.0000
    476 C           2.3223   18.4620    5.6930 C.ar    1  UNL1        0.0000
    477 C         -11.8338   17.3169    7.4529 C.2     1  UNL1        0.0000
    478 C          -2.1047   11.2041    7.5233 C.ar    1  UNL1        0.0000
    479 C          -7.4146   24.4344    5.6269 C.ar    1  UNL1        0.0000
    480 C           2.0790   18.5266    7.1009 C.ar    1  UNL1        0.0000
    481 C         -11.6211   17.2062    6.0635 C.3     1  UNL1        0.0000
    482 C          -0.9470   10.4830    7.9691 C.ar    1  UNL1        0.0000
    483 C          -8.5380   25.1693    5.1891 C.ar    1  UNL1        0.0000
    484 C          -7.1467   24.2710    6.9801 C.ar    1  UNL1        0.0000
    485 C          -2.3646   11.3292    6.1410 C.ar    1  UNL1        0.0000
    486 C           3.4770   17.8035    5.2100 C.ar    1  UNL1        0.0000
    487 C         -12.9546   17.9700    7.9586 C.2     1  UNL1        0.0000
    488 C          -4.2083   18.6842    6.6396 C.ar    1  UNL1        0.0000
    489 C          -5.2199   16.9569    8.5908 C.ar    1  UNL1        0.0000
    490 C          -0.8606   24.1031    4.6051 C.ar    1  UNL1        0.0000
    491 C          -8.7520   11.4321    6.5282 C.2     1  UNL1        0.0000
    492 C           1.6931   15.9651    0.0113 C.3     1  UNL1        0.0000
    493 C          -5.1829   27.5243    0.0887 C.2     1  UNL1        0.0000
    494 C          -0.3379   14.5722   12.9898 C.ar    1  UNL1        0.0000
    495 C         -13.7417   15.6486   13.0467 C.2     1  UNL1        0.0000
    496 C          -3.6715   19.6013    5.6056 C.3     1  UNL1        0.0000
    497 C          -8.1669   12.3434    7.5402 C.2     1  UNL1        0.0000
    498 C          -2.8060   10.1752   13.1012 C.3     1  UNL1        0.0000
    499 C          -5.2259   26.0884    0.0497 C.2     1  UNL1        0.0000
    500 C          -1.6132   13.9105   13.0430 C.3     1  UNL1        0.0000
    501 C         -12.3545   16.1115   13.0640 C.2     1  UNL1        0.0000
    502 C          -5.5391   18.8194    7.0787 C.ar    1  UNL1        0.0000
    503 C          -3.8968   16.8136    8.1546 C.ar    1  UNL1        0.0000
    504 C          -1.5980   25.2044    5.0587 C.ar    1  UNL1        0.0000
    505 C         -15.0408   24.6964    6.0734 C.3     1  UNL1        0.0000
    506 C           1.7626   15.2963    1.2398 C.2     1  UNL1        0.0000
    507 C          -9.5301   20.9921   11.9630 C.ar    1  UNL1        0.0000
    508 C         -11.3825   22.1073    1.1102 C.2     5  UNL5        0.0000
    509 C         -14.3733   15.3988   11.8218 C.3     1  UNL1        0.0000
    510 C           0.4193   23.8465    5.1127 C.ar    1  UNL1        0.0000
    511 C           5.9692   11.6822    6.0174 C.ar    1  UNL1        0.0000
    512 C          -3.3893   17.6748    7.1812 C.ar    1  UNL1        0.0000
    513 C          -6.0414   17.9555    8.0529 C.ar    1  UNL1        0.0000
    514 C           0.3398   14.8664   11.7534 C.ar    1  UNL1        0.0000
    515 C         -10.1111   22.6318    1.1525 C.2     5  UNL5        0.0000
    516 C          -2.5840    7.9883   11.9106 C.ar    1  UNL1        0.0000
    517 C           1.8335   13.8972    1.3189 C.2     1  UNL1        0.0000
    518 N           1.9163   13.2992    2.5559 N.pl3   1  UNL1        0.0000
    519 N          -0.2395   14.6650   10.5174 N.pl3   1  UNL1        0.0000
    520 N           0.9792   19.1342    7.6391 N.pl3   1  UNL1        0.0000
    521 N          -0.6033   10.3348    9.2844 N.pl3   1  UNL1        0.0000
    522 O           0.2126   19.3994    5.0765 O.3     1  UNL1        0.0000
    523 O         -10.0759   15.8005    8.0200 O.3     1  UNL1        0.0000
    524 O          -2.6767   11.9204    9.6957 O.3     1  UNL1        0.0000
    525 O          -6.5959   24.2487    3.4226 O.3     1  UNL1        0.0000
    526 O          -5.7030   22.8899    5.0021 O.3     1  UNL1        0.0000
    527 O          -4.2452   12.1121    8.0781 O.3     1  UNL1        0.0000
    528 O           1.8023   19.1325    3.4898 O.3     1  UNL1        0.0000
    529 O         -10.9257   17.1566    9.6244 O.3     1  UNL1        0.0000
    530 O          -0.8653   18.7859    2.5052 O.3     1  UNL1        0.0000
    531 O          -8.3899   16.3706   10.1096 O.3     1  UNL1        0.0000
    532 O          -0.0042   21.1040    2.9532 O.3     1  UNL1        0.0000
    533 O         -10.0782   14.5853   10.6096 O.3     1  UNL1        0.0000
    534 O          -5.3623   11.5396   10.6743 O.3     1  UNL1        0.0000
    535 O          -4.0525   23.4987    2.9093 O.3     1  UNL1        0.0000
    536 O          -4.4903   13.8335   10.2080 O.3     1  UNL1        0.0000
    537 O          -5.6994   21.6838    2.3989 O.3     1  UNL1        0.0000
    538 O          -2.4468   19.4645    5.2443 O.3     1  UNL1        0.0000
    539 O          -8.8581   13.3543    7.9235 O.2     1  UNL1        0.0000
    540 O          -2.9556   10.7669   11.9620 O.3     1  UNL1        0.0000
    541 O          -5.2784   25.3832    1.1444 O.2     1  UNL1        0.0000
    542 O          -2.2510   13.5813   11.9563 O.3     1  UNL1        0.0000
    543 O          -7.4494   23.4708    1.0941 O.3     1  UNL1        0.0000
    544 O          -6.9930   12.0889    7.9912 O.2     1  UNL1        0.0000
    545 O          -4.4477   20.4964    5.1176 O.3     1  UNL1        0.0000
    546 O           2.1772   20.8295    1.0833 O.3     1  UNL1        0.0000
    547 O         -11.7701   16.3658   11.9440 O.2     1  UNL1        0.0000
    548 O           1.4782   18.0491    1.1133 O.3     1  UNL1        0.0000
    549 O          -9.5649   18.2259   12.0151 O.3     1  UNL1        0.0000
    550 O          -2.7528   21.1124    3.0197 O.3     1  UNL1        0.0000
    551 O          -7.1690   13.9407   10.0169 O.3     1  UNL1        0.0000
    552 O          -0.2740   19.9769    0.0716 O.3     1  UNL1        0.0000
    553 O          -9.2602   15.6791   13.0448 O.3     1  UNL1        0.0000
    554 H          -6.8898   19.7623   12.3532 H       7  UNL7        0.0000
    555 H          -5.1696   18.4247   10.6060 H       7  UNL7        0.0000
    556 C          -6.0967   19.0481   12.5385 C.2     7  UNL7        0.0000
    557 H          -2.5991   18.1253   10.4885 H       7  UNL7        0.0000
    558 C          -5.2566   18.3872   11.6838 C.2     7  UNL7        0.0000
    559 H          -2.6750   27.2359    1.7375 H       6  UNL6        0.0000
    560 N          -1.4698   25.8709    0.7089 N.2     6  UNL6        0.0000
    561 C          -2.2330   17.5284   11.3334 C.3     7  UNL7        0.0000
    562 H          -1.7749   18.1996   12.0704 H       7  UNL7        0.0000
    563 C          -2.1367   26.3069    1.9401 C.3     6  UNL6        0.0000
    564 N          -4.4504   17.5685   12.4564 N.pl3   7  UNL7        0.0000
    565 H          -2.8467   25.5355    2.2624 H       6  UNL6        0.0000
    566 H          -1.4629   16.8419   10.9544 H       7  UNL7        0.0000
    567 C          -0.4715   24.9701    0.6399 C.2     6  UNL6        0.0000
    568 C          -3.3568   16.7070   11.9568 C.3     7  UNL7        0.0000
    569 H          -3.7915   15.9936   11.2434 H       7  UNL7        0.0000
    570 H          -1.3854   26.4778    2.7163 H       6  UNL6        0.0000
    571 H          -0.0143   24.4646    1.4820 H       6  UNL6        0.0000
    572 H          -3.0018   16.1290   12.8174 H       7  UNL7        0.0000
    573 TI        -14.2028    9.2531   24.3754 Ti      1  UNL1        0.0000
    574 TI         -3.5318   12.5209   14.9547 Ti      1  UNL1        0.0000
    575 TI         -9.9818    5.4641   22.5273 Ti      1  UNL1        0.0000
    576 TI         -8.8228   14.6802   16.7587 Ti      1  UNL1        0.0000
    577 TI         -9.8898   16.3250   14.8622 Ti      1  UNL1        0.0000
    578 TI         -8.0750    5.2733   24.4698 Ti      1  UNL1        0.0000
    579 TI        -13.2044    7.5536   22.4763 Ti      1  UNL1        0.0000
    580 TI         -5.5185   12.7518   16.8136 Ti      1  UNL1        0.0000
    581 H          -7.5876    8.7903   21.6937 H       1  UNL1        0.0000
    582 H         -18.3593   17.2804   19.5885 H       1  UNL1        0.0000
    583 H          -6.9030   18.1483   17.7606 H       1  UNL1        0.0000
    584 H         -13.8381   13.1656   24.1586 H       1  UNL1        0.0000
    585 H          -2.5857    8.6450   15.2654 H       1  UNL1        0.0000
    586 H         -18.1361    8.3596   24.0139 H       1  UNL1        0.0000
    587 H          -0.2204   14.6415   15.1394 H       1  UNL1        0.0000
    588 H          -6.9618    1.2757   24.0728 H       1  UNL1        0.0000
    589 H         -13.9235   15.5938   15.2060 H       1  UNL1        0.0000
    590 H          -6.6776   10.3418   19.9372 H       1  UNL1        0.0000
    591 H         -11.3798   10.8080   21.5163 H       1  UNL1        0.0000
    592 H           1.1064    5.3094   19.4887 H       1  UNL1        0.0000
    593 H         -13.6617    7.4695   26.0944 H       1  UNL1        0.0000
    594 H          -5.4072   12.2151   13.2649 H       1  UNL1        0.0000
    595 H          -7.5731    4.6310   18.9550 H       1  UNL1        0.0000
    596 H         -10.5889   16.4518   20.3897 H       1  UNL1        0.0000
    597 H         -17.3944   10.7988   22.1477 H       1  UNL1        0.0000
    598 H          -0.6933   10.5310   17.2425 H       1  UNL1        0.0000
    599 H         -15.0630    9.4364   18.7991 H       1  UNL1        0.0000
    600 H         -13.0385   18.0410   17.2352 H       1  UNL1        0.0000
    601 H          -9.6011   19.4386   15.7198 H       1  UNL1        0.0000
    602 H          -2.6665    6.6204   16.4660 H       1  UNL1        0.0000
    603 H          -6.7279   14.4350   15.4080 H       1  UNL1        0.0000
    604 H         -11.1190    7.2722   23.8294 H       1  UNL1        0.0000
    605 H          -3.9193    7.3564   22.8387 H       1  UNL1        0.0000
    606 H          -5.3790    6.8351   23.5936 H       1  UNL1        0.0000
    607 H          -3.5060   11.8086   21.7428 H       1  UNL1        0.0000
    608 H          -4.0969   12.1491   20.1279 H       1  UNL1        0.0000
    609 H          -4.2364    2.3878   22.6444 H       1  UNL1        0.0000
    610 H          -5.5505    3.4426   23.1105 H       1  UNL1        0.0000
    611 H          -9.9230    9.0492   22.4663 H       1  UNL1        0.0000
    612 H         -10.4707   12.3646   19.7588 H       1  UNL1        0.0000
    613 H          -5.5936   16.2070   16.9556 H       1  UNL1        0.0000
    614 H          -3.3355   15.7476   17.8549 H       1  UNL1        0.0000
    615 C          -2.9123   11.7968   17.8139 C.3     1  UNL1        0.0000
    616 C         -15.1878    9.4843   21.5341 C.3     1  UNL1        0.0000
    617 C          -7.3730    4.5450   21.5868 C.3     1  UNL1        0.0000
    618 C         -10.8209   16.5810   17.7315 C.3     1  UNL1        0.0000
    619 C          -1.9902   11.2228   18.8033 C.ar    1  UNL1        0.0000
    620 C         -16.1463   10.0777   20.5632 C.2     1  UNL1        0.0000
    621 C          -6.4172    3.9649   20.6336 C.ar    1  UNL1        0.0000
    622 C         -11.7271   17.1952   18.7372 C.ar    1  UNL1        0.0000
    623 C          -2.2335   11.2874   20.2112 C.ar    1  UNL1        0.0000
    624 C         -15.9337    9.9670   19.1738 C.3     1  UNL1        0.0000
    625 C          -5.2595    3.2438   21.0793 C.ar    1  UNL1        0.0000
    626 C         -12.8506   17.9301   18.2994 C.ar    1  UNL1        0.0000
    627 C         -11.4593   17.0318   20.0904 C.ar    1  UNL1        0.0000
    628 C          -6.6771    4.0900   19.2512 C.ar    1  UNL1        0.0000
    629 C          -0.8356   10.5643   18.3203 C.ar    1  UNL1        0.0000
    630 C         -17.2671   10.7308   21.0689 C.2     1  UNL1        0.0000
    631 C          -8.5209   11.4450   19.7498 C.ar    1  UNL1        0.0000
    632 C          -9.5324    9.7177   21.7011 C.ar    1  UNL1        0.0000
    633 C          -5.1731   16.8639   17.7154 C.ar    1  UNL1        0.0000
    634 C         -13.0645    4.1929   19.6385 C.2     1  UNL1        0.0000
    635 C          -2.6194    8.7259   13.1216 C.ar    1  UNL1        0.0000
    636 C          -9.4955   20.2851   13.1989 C.ar    1  UNL1        0.0000
    637 C          -4.6504    7.3330   26.1001 C.ar    1  UNL1        0.0000
    638 C         -18.0542    8.4094   26.1570 C.2     1  UNL1        0.0000
    639 C          -7.9840   12.3621   18.7159 C.3     1  UNL1        0.0000
    640 C         -12.4795    5.1042   20.6505 C.2     1  UNL1        0.0000
    641 C          -7.1185    2.9360   26.2114 C.3     1  UNL1        0.0000
    642 C          -9.5385   18.8492   13.1600 C.3     1  UNL1        0.0000
    643 C          -5.9257    6.6713   26.1533 C.3     1  UNL1        0.0000
    644 C         -16.6671    8.8723   26.1743 C.2     1  UNL1        0.0000
    645 C          -9.8516   11.5802   20.1890 C.ar    1  UNL1        0.0000
    646 C          -8.2093    9.5744   21.2649 C.ar    1  UNL1        0.0000
    647 C          -5.9105   17.9652   18.1689 C.ar    1  UNL1        0.0000
    648 C         -19.3533   17.4572   19.1837 C.3     1  UNL1        0.0000
    649 C          -2.5499    8.0571   14.3501 C.ar    1  UNL1        0.0000
    650 C         -13.8426   13.7529   25.0733 C.ar    1  UNL1        0.0000
    651 C         -15.6950   14.8681   14.2205 C.2     1  UNL1        0.0000
    652 C         -18.6858    8.1596   24.9321 C.3     1  UNL1        0.0000
    653 C          -3.8932   16.6073   18.2230 C.ar    1  UNL1        0.0000
    654 C           1.6566    4.4430   19.1277 C.ar    1  UNL1        0.0000
    655 C          -7.7019   10.4356   20.2915 C.ar    1  UNL1        0.0000
    656 C         -10.3539   10.7163   21.1632 C.ar    1  UNL1        0.0000
    657 C          -3.9728    7.6272   24.8637 C.ar    1  UNL1        0.0000
    658 C         -14.4236   15.3926   14.2627 C.2     1  UNL1        0.0000
    659 C          -6.8965    0.7491   25.0209 C.ar    1  UNL1        0.0000
    660 C          -2.4790    6.6580   14.4292 C.ar    1  UNL1        0.0000
    661 N          -2.3962    6.0599   15.6662 N.pl3   1  UNL1        0.0000
    662 N          -4.5520    7.4258   23.6277 N.pl3   1  UNL1        0.0000
    663 N          -3.3333   11.8950   20.7494 N.pl3   1  UNL1        0.0000
    664 N          -4.9158    3.0956   22.3946 N.pl3   1  UNL1        0.0000
    665 O          -4.0999   12.1602   18.1868 O.3     1  UNL1        0.0000
    666 O         -14.3884    8.5613   21.1303 O.3     1  UNL1        0.0000
    667 O          -6.9892    4.6812   22.8060 O.3     1  UNL1        0.0000
    668 O         -10.9085   17.0095   16.5329 O.3     1  UNL1        0.0000
    669 O         -10.0155   15.6507   18.1124 O.3     1  UNL1        0.0000
    670 O          -8.5577    4.8729   21.1883 O.3     1  UNL1        0.0000
    671 O          -2.5102   11.8933   16.6000 O.3     1  UNL1        0.0000
    672 O         -15.2383    9.9174   22.7347 O.3     1  UNL1        0.0000
    673 O          -5.1778   11.5467   15.6155 O.3     1  UNL1        0.0000
    674 O         -12.7024    9.1313   23.2199 O.3     1  UNL1        0.0000
    675 O          -4.3167   13.8648   16.0635 O.3     1  UNL1        0.0000
    676 O         -14.3907    7.3461   23.7199 O.3     1  UNL1        0.0000
    677 O          -9.6749    4.3004   23.7846 O.3     1  UNL1        0.0000
    678 O          -8.3651   16.2595   16.0195 O.3     1  UNL1        0.0000
    679 O          -8.8028    6.5943   23.3183 O.3     1  UNL1        0.0000
    680 O         -10.0120   14.4446   15.5092 O.3     1  UNL1        0.0000
    681 O          -6.7594   12.2253   18.3546 O.3     1  UNL1        0.0000
    682 O         -13.1706    6.1151   21.0338 O.2     1  UNL1        0.0000
    683 O          -7.2681    3.5277   25.0723 O.3     1  UNL1        0.0000
    684 O          -9.5910   18.1440   14.2546 O.3     1  UNL1        0.0000
    685 O          -6.5635    6.3421   25.0666 O.3     1  UNL1        0.0000
    686 O         -11.7620   16.2316   14.2044 O.2     1  UNL1        0.0000
    687 O         -11.3056    4.8497   21.1014 O.2     1  UNL1        0.0000
    688 O          -8.7602   13.2572   18.2279 O.3     1  UNL1        0.0000
    689 O          -2.1353   13.5903   14.1936 O.3     1  UNL1        0.0000
    690 O         -16.0826    9.1266   25.0543 O.2     1  UNL1        0.0000
    691 O          -2.8343   10.8099   14.2236 O.3     1  UNL1        0.0000
    692 O         -13.8774   10.9867   25.1254 O.3     1  UNL1        0.0000
    693 O          -7.0653   13.8732   16.1299 O.3     1  UNL1        0.0000
    694 O         -11.4815    6.7015   23.1272 O.3     1  UNL1        0.0000
    695 O          -4.5865   12.7377   13.1819 O.3     1  UNL1        0.0000
    696 O         -13.5728    8.4399   26.1551 O.3     1  UNL1        0.0000
    697 H         -11.2023   12.5231   25.4635 H       8  UNL8        0.0000
    698 H          -9.4821   11.1855   23.7162 H       8  UNL8        0.0000
    699 C         -10.4092   11.8089   25.6488 C.2     8  UNL8        0.0000
    700 H          -6.9116   10.8861   23.5988 H       8  UNL8        0.0000
    701 C          -9.5691   11.1480   24.7940 C.2     8  UNL8        0.0000
    702 H          -6.9876   19.9967   14.8478 H       7  UNL7        0.0000
    703 N          -5.7823   18.6317   13.8192 N.pl3   7  UNL7        0.0000
    704 C          -6.5456   10.2892   24.4437 C.3     8  UNL8        0.0000
    705 H          -6.0874   10.9604   25.1807 H       8  UNL8        0.0000
    706 C          -6.4493   19.0677   15.0504 C.3     7  UNL7        0.0000
    707 N          -8.7630   10.3293   25.5666 N.pl3   8  UNL8        0.0000
    708 H          -7.1592   18.2963   15.3727 H       7  UNL7        0.0000
    709 H          -5.7754    9.6027   24.0647 H       8  UNL8        0.0000
    710 C          -4.7840   17.7309   13.7501 C.3     7  UNL7        0.0000
    711 C          -7.6693    9.4678   25.0671 C.3     8  UNL8        0.0000
    712 H          -8.1040    8.7544   24.3536 H       8  UNL8        0.0000
    713 H          -5.6980   19.2386   15.8266 H       7  UNL7        0.0000
    714 H          -4.3268   17.2254   14.5923 H       7  UNL7        0.0000
    715 H          -7.3143    8.8898   25.9277 H       8  UNL8        0.0000
    716 TI        -18.5154    2.0139   37.4857 Ti      1  UNL1        0.0000
    717 TI         -7.8443    5.2817   28.0650 Ti      1  UNL1        0.0000
    718 TI        -14.2944   -1.7751   35.6375 Ti      1  UNL1        0.0000
    719 TI        -13.1353    7.4410   29.8690 Ti      1  UNL1        0.0000
    720 TI        -14.2024    9.0858   27.9725 Ti      1  UNL1        0.0000
    721 TI        -12.3876   -1.9659   37.5800 Ti      1  UNL1        0.0000
    722 TI        -17.5169    0.3144   35.5866 Ti      1  UNL1        0.0000
    723 TI         -9.8311    5.5126   29.9238 Ti      1  UNL1        0.0000
    724 H         -11.9001    1.5511   34.8039 H       1  UNL1        0.0000
    725 H         -22.6718   10.0412   32.6988 H       1  UNL1        0.0000
    726 H         -11.2155   10.9091   30.8709 H       1  UNL1        0.0000
    727 H         -18.1507    5.9264   37.2689 H       7  UNL7        0.0000
    728 H          -6.8983    1.4058   28.3757 H       1  UNL1        0.0000
    729 H         -22.4486    1.1204   37.1242 H       1  UNL1        0.0000
    730 H          -4.5329    7.4023   28.2496 H       1  UNL1        0.0000
    731 H         -11.2743   -5.9635   37.1831 H       3  UNL3        0.0000
    732 H         -18.2360    8.3546   28.3163 H       1  UNL1        0.0000
    733 H         -10.9901    3.1026   33.0474 H       1  UNL1        0.0000
    734 H         -15.6923    3.5688   34.6266 H       1  UNL1        0.0000
    735 H          -3.2061   -1.9298   32.5990 H       1  UNL1        0.0000
    736 H         -17.9743    0.2303   39.2047 H       1  UNL1        0.0000
    737 H          -9.7197    4.9759   26.3751 H       1  UNL1        0.0000
    738 H         -11.8856   -2.6082   32.0653 H       1  UNL1        0.0000
    739 H         -14.9014    9.2126   33.5000 H       1  UNL1        0.0000
    740 H         -21.7069    3.5596   35.2580 H       1  UNL1        0.0000
    741 H          -5.0058    3.2918   30.3527 H       1  UNL1        0.0000
    742 H         -19.3755    2.1972   31.9094 H       1  UNL1        0.0000
    743 H         -17.3510   10.8018   30.3455 H       1  UNL1        0.0000
    744 H         -13.9136   12.1994   28.8301 H       1  UNL1        0.0000
    745 H          -6.9790   -0.6188   29.5763 H       1  UNL1        0.0000
    746 H         -11.0404    7.1958   28.5183 H       1  UNL1        0.0000
    747 H         -15.4315    0.0330   36.9397 H       1  UNL1        0.0000
    748 H          -8.2318    0.1172   35.9489 H       1  UNL1        0.0000
    749 H          -9.6915   -0.4041   36.7038 H       1  UNL1        0.0000
    750 H          -7.8185    4.5694   34.8530 H       1  UNL1        0.0000
    751 H          -8.4094    4.9099   33.2382 H       1  UNL1        0.0000
    752 H          -8.5489   -4.8514   35.7547 H       1  UNL1        0.0000
    753 H          -9.8630   -3.7966   36.2207 H       1  UNL1        0.0000
    754 H         -14.2356    1.8100   35.5766 H       1  UNL1        0.0000
    755 H         -14.7832    5.1254   32.8691 H       1  UNL1        0.0000
    756 H          -9.9061    8.9678   30.0659 H       1  UNL1        0.0000
    757 H          -7.6480    8.5084   30.9651 H       1  UNL1        0.0000
    758 C          -7.2248    4.5576   30.9242 C.3     1  UNL1        0.0000
    759 C         -19.5003    2.2451   34.6444 C.3     1  UNL1        0.0000
    760 C         -11.6855   -2.6942   34.6971 C.3     1  UNL1        0.0000
    761 C         -15.1335    9.3418   30.8418 C.3     1  UNL1        0.0000
    762 C          -6.3027    3.9836   31.9136 C.ar    1  UNL1        0.0000
    763 C         -20.4589    2.8385   33.6734 C.2     1  UNL1        0.0000
    764 C         -10.7298   -3.2743   33.7439 C.ar    1  UNL1        0.0000
    765 C         -16.0397    9.9560   31.8474 C.ar    1  UNL1        0.0000
    766 C          -6.5461    4.0482   33.3215 C.ar    1  UNL1        0.0000
    767 C         -20.2462    2.7278   32.2841 C.3     1  UNL1        0.0000
    768 C          -9.5720   -3.9954   34.1896 C.ar    1  UNL1        0.0000
    769 C         -17.1631   10.6909   31.4097 C.ar    1  UNL1        0.0000
    770 C         -15.7718    9.7926   33.2006 C.ar    1  UNL1        0.0000
    771 C         -10.9897   -3.1492   32.3615 C.ar    1  UNL1        0.0000
    772 C          -5.1481    3.3251   31.4306 C.ar    1  UNL1        0.0000
    773 C         -21.5797    3.4916   34.1792 C.2     1  UNL1        0.0000
    774 C         -12.8334    4.2058   32.8601 C.ar    1  UNL1        0.0000
    775 C         -13.8450    2.4785   34.8114 C.ar    1  UNL1        0.0000
    776 C          -9.4857    9.6247   30.8257 C.ar    1  UNL1        0.0000
    777 C         -17.3771   -3.0463   32.7488 C.2     1  UNL1        0.0000
    778 C          -6.9320    1.4867   26.2319 C.ar    1  UNL1        0.0000
    779 C         -13.8080   13.0459   26.3092 C.ar    1  UNL1        0.0000
    780 C          -8.9629    0.0938   39.2104 C.2     1  UNL1        0.0000
    781 C         -22.3668    1.1702   39.2673 C.2     1  UNL1        0.0000
    782 C         -12.2965    5.1229   31.8261 C.3     1  UNL1        0.0000
    783 C         -16.7920   -2.1350   33.7608 C.2     1  UNL1        0.0000
    784 C         -11.4310   -4.3032   39.3217 C.3     1  UNL1        0.0000
    785 C         -13.8510   11.6100   26.2702 C.3     1  UNL1        0.0000
    786 C         -10.2382   -0.5679   39.2636 C.2     1  UNL1        0.0000
    787 C         -20.9796    1.6331   39.2845 C.2     1  UNL1        0.0000
    788 C         -14.1642    4.3410   33.2993 C.ar    1  UNL1        0.0000
    789 C         -12.5218    2.3352   34.3751 C.ar    1  UNL1        0.0000
    790 C         -10.2230   10.7260   31.2792 C.ar    1  UNL1        0.0000
    791 C         -23.6658   10.2180   32.2939 C.3     1  UNL1        0.0000
    792 C          -6.8625    0.8179   27.4604 C.ar    1  UNL1        0.0000
    793 C         -18.1551    6.5137   38.1835 C.2     7  UNL7        0.0000
    794 C         -20.0075    7.6289   27.3308 C.2     1  UNL1        0.0000
    795 C         -22.9984    0.9204   38.0424 C.3     1  UNL1        0.0000
    796 C          -8.2057    9.3680   31.3332 C.ar    1  UNL1        0.0000
    797 C          -2.6559   -2.7962   32.2379 C.ar    1  UNL1        0.0000
    798 C         -12.0144    3.1964   33.4017 C.ar    1  UNL1        0.0000
    799 C         -14.6664    3.4771   34.2734 C.ar    1  UNL1        0.0000
    800 C          -8.2853    0.3880   37.9739 C.2     1  UNL1        0.0000
    801 C         -18.7362    8.1534   27.3730 C.2     1  UNL1        0.0000
    802 C         -11.2090   -6.4901   38.1312 C.2     3  UNL3        0.0000
    803 C          -6.7916   -0.5812   27.5394 C.ar    1  UNL1        0.0000
    804 N          -6.7088   -1.1793   28.7764 N.pl3   1  UNL1        0.0000
    805 N          -8.8645    0.1866   36.7380 N.pl3   1  UNL1        0.0000
    806 N          -7.6458    4.6557   33.8596 N.pl3   1  UNL1        0.0000
    807 N          -9.2283   -4.1436   35.5049 N.pl3   1  UNL1        0.0000
    808 O          -8.4125    4.9210   31.2971 O.3     1  UNL1        0.0000
    809 O         -18.7009    1.3221   34.2406 O.3     1  UNL1        0.0000
    810 O         -11.3018   -2.5580   35.9163 O.3     1  UNL1        0.0000
    811 O         -15.2210    9.7703   29.6432 O.3     1  UNL1        0.0000
    812 O         -14.3280    8.4115   31.2227 O.3     1  UNL1        0.0000
    813 O         -12.8703   -2.3663   34.2986 O.3     1  UNL1        0.0000
    814 O          -6.8228    4.6541   29.7103 O.3     1  UNL1        0.0000
    815 O         -19.5508    2.6782   35.8450 O.3     1  UNL1        0.0000
    816 O          -9.4903    4.3075   28.7258 O.3     1  UNL1        0.0000
    817 O         -17.0149    1.8921   36.3302 O.3     1  UNL1        0.0000
    818 O          -8.6292    6.6256   29.1737 O.3     1  UNL1        0.0000
    819 O         -18.7032    0.1069   36.8302 O.3     1  UNL1        0.0000
    820 O         -13.9874   -2.9388   36.8949 O.3     1  UNL1        0.0000
    821 O         -12.6776    9.0203   29.1298 O.3     1  UNL1        0.0000
    822 O         -13.1154   -0.6449   36.4286 O.3     1  UNL1        0.0000
    823 O         -14.3245    7.2054   28.6194 O.3     1  UNL1        0.0000
    824 O         -11.0719    4.9861   31.4649 O.3     1  UNL1        0.0000
    825 O         -17.4832   -1.1241   34.1441 O.2     1  UNL1        0.0000
    826 O         -11.5806   -3.7115   38.1826 O.3     1  UNL1        0.0000
    827 O         -13.9035   10.9048   27.3649 O.3     1  UNL1        0.0000
    828 O         -10.8761   -0.8971   38.1769 O.2     1  UNL1        0.0000
    829 O         -16.0745    8.9924   27.3147 O.2     1  UNL1        0.0000
    830 O         -15.6181   -2.3895   34.2117 O.2     1  UNL1        0.0000
    831 O         -13.0727    6.0180   31.3382 O.3     1  UNL1        0.0000
    832 O          -6.4478    6.3511   27.3039 O.3     1  UNL1        0.0000
    833 O         -20.3951    1.8874   38.1645 O.2     1  UNL1        0.0000
    834 O          -7.1468    3.5707   27.3338 O.3     1  UNL1        0.0000
    835 O         -18.1899    3.7475   38.2357 O.3     1  UNL1        0.0000
    836 O         -11.3779    6.6340   29.2402 O.3     1  UNL1        0.0000
    837 O         -15.7940   -0.5377   36.2375 O.3     1  UNL1        0.0000
    838 O          -8.8990    5.4985   26.2921 O.3     1  UNL1        0.0000
    839 O         -17.8853    1.2007   39.2653 O.3     1  UNL1        0.0000
    840 H         -15.5149    5.2839   38.5738 H       9  UNL9        0.0000
    841 H         -13.7946    3.9463   36.8265 H       9  UNL9        0.0000
    842 C         -14.7218    4.5697   38.7591 C.3     9  UNL9        0.0000
    843 H         -11.2241    3.6469   36.7090 H       9  UNL9        0.0000
    844 C         -13.8816    3.9088   37.9043 C.2     9  UNL9        0.0000
    845 H         -11.3001   12.7574   27.9581 H       8  UNL8        0.0000
    846 N         -10.0948   11.3925   26.9294 N.pl3   8  UNL8        0.0000
    847 C         -10.8581    3.0500   37.5540 C.3     9  UNL9        0.0000
    848 H         -10.3999    3.7212   38.2909 H       9  UNL9        0.0000
    849 C         -10.7618   11.8285   28.1606 C.3     8  UNL8        0.0000
    850 N         -13.0755    3.0901   38.6769 N.2     9  UNL9        0.0000
    851 H         -11.4717   11.0571   28.4830 H       8  UNL8        0.0000
    852 H         -10.0879    2.3635   37.1749 H       9  UNL9        0.0000
    853 C          -9.0966   10.4917   26.8604 C.3     8  UNL8        0.0000
    854 C         -11.9818    2.2286   38.1774 C.3     9  UNL9        0.0000
    855 H         -12.4166    1.5152   37.4639 H       9  UNL9        0.0000
    856 H         -10.0105   11.9994   28.9369 H       8  UNL8        0.0000
    857 H          -8.6394    9.9862   27.7026 H       8  UNL8        0.0000
    858 H         -11.6268    1.6506   39.0380 H       9  UNL9        0.0000
    859 TI        -16.9122   30.8691   11.2652 Ti      1  UNL1        0.0000
    860 TI         -6.2412   34.1369    1.8444 Ti      1  UNL1        0.0000
    861 TI        -12.6912   27.0801    9.4170 Ti      1  UNL1        0.0000
    862 TI        -11.5322   36.2962    3.6484 Ti      1  UNL1        0.0000
    863 TI        -12.5993   37.9411    1.7520 Ti      1  UNL1        0.0000
    864 TI        -10.7844   26.8893   11.3595 Ti      1  UNL1        0.0000
    865 TI        -15.9138   29.1696    9.3660 Ti      1  UNL1        0.0000
    866 TI         -8.2279   34.3678    3.7033 Ti      1  UNL1        0.0000
    867 H         -10.2970   30.4063    8.5834 H       1  UNL1        0.0000
    868 H         -21.0687   38.8964    6.4782 H       8  UNL8        0.0000
    869 H          -9.6124   39.7643    4.6503 H      10  UNL10       0.0000
    870 H         -16.5475   34.7816   11.0484 H       1  UNL1        0.0000
    871 H          -5.2951   30.2610    2.1552 H       1  UNL1        0.0000
    872 H         -20.8455   29.9756   10.9036 H       1  UNL1        0.0000
    873 H          -2.9298   36.2575    2.0291 H      21  UNL21       0.0000
    874 H          -9.6712   22.8917   10.9625 H       1  UNL1        0.0000
    875 H         -16.6329   37.2098    2.0957 H       9  UNL9        0.0000
    876 H          -9.3870   31.9578    6.8269 H       1  UNL1        0.0000
    877 H         -14.0892   32.4240    8.4060 H       1  UNL1        0.0000
    878 H          -1.6030   26.9254    6.3785 H       1  UNL1        0.0000
    879 H         -16.3711   29.0855   12.9842 H       1  UNL1        0.0000
    880 H          -8.1166   33.8311    0.1546 H       1  UNL1        0.0000
    881 H         -10.2825   26.2470    5.8447 H       1  UNL1        0.0000
    882 H         -13.2983   38.0678    7.2795 H       1  UNL1        0.0000
    883 H         -20.1038   32.4148    9.0374 H       1  UNL1        0.0000
    884 H          -3.4027   32.1470    4.1322 H       1  UNL1        0.0000
    885 H         -17.7724   31.0524    5.6889 H       1  UNL1        0.0000
    886 H         -15.7479   39.6570    4.1249 H       1  UNL1        0.0000
    887 H         -12.3105   41.0546    2.6096 H      24  UNL24       0.0000
    888 H          -5.3759   28.2364    3.3557 H       1  UNL1        0.0000
    889 H          -9.4373   36.0510    2.2978 H       1  UNL1        0.0000
    890 H         -13.8284   28.8882   10.7192 H       1  UNL1        0.0000
    891 H          -6.6287   28.9724    9.7284 H       1  UNL1        0.0000
    892 H          -8.0884   28.4512   10.4833 H       1  UNL1        0.0000
    893 H          -6.2154   33.4246    8.6325 H       1  UNL1        0.0000
    894 H          -6.8063   33.7651    7.0176 H       1  UNL1        0.0000
    895 H          -6.9458   24.0038    9.5342 H       1  UNL1        0.0000
    896 H          -8.2599   25.0586   10.0002 H       1  UNL1        0.0000
    897 H         -12.6324   30.6652    9.3560 H       1  UNL1        0.0000
    898 H         -13.1801   33.9807    6.6485 H       1  UNL1        0.0000
    899 H          -8.3030   37.8230    3.8453 H      10  UNL10       0.0000
    900 H          -6.0449   37.3636    4.7446 H      10  UNL10       0.0000
    901 C          -5.6217   33.4128    4.7037 C.3     1  UNL1        0.0000
    902 C         -17.8972   31.1003    8.4239 C.3     1  UNL1        0.0000
    903 C         -10.0824   26.1610    8.4766 C.3     1  UNL1        0.0000
    904 C         -13.5304   38.1970    4.6213 C.3     1  UNL1        0.0000
    905 C          -4.6996   32.8389    5.6930 C.ar    1  UNL1        0.0000
    906 C         -18.8558   31.6937    7.4529 C.2     1  UNL1        0.0000
    907 C          -9.1266   25.5809    7.5233 C.ar    1  UNL1        0.0000
    908 C         -14.4365   38.8112    5.6269 C.2     1  UNL1        0.0000
    909 C          -4.9430   32.9034    7.1009 C.ar    1  UNL1        0.0000
    910 C         -18.6431   31.5830    6.0635 C.3     1  UNL1        0.0000
    911 C          -7.9689   24.8598    7.9691 C.ar    1  UNL1        0.0000
    912 C         -15.5600   39.5461    5.1891 C.3     1  UNL1        0.0000
    913 C         -14.1687   38.6478    6.9801 C.2     1  UNL1        0.0000
    914 C          -9.3865   25.7060    6.1410 C.ar    1  UNL1        0.0000
    915 C          -3.5450   32.1803    5.2100 C.ar    1  UNL1        0.0000
    916 C         -19.9765   32.3468    7.9586 C.2     1  UNL1        0.0000
    917 C         -11.2303   33.0610    6.6396 C.ar    1  UNL1        0.0000
    918 C         -12.2418   31.3338    8.5908 C.ar    1  UNL1        0.0000
    919 C          -7.8825   38.4799    4.6051 C.2    10  UNL10       0.0000
    920 C         -15.7739   25.8089    6.5282 C.2     1  UNL1        0.0000
    921 C          -5.3288   30.3419    0.0113 C.3     1  UNL1        0.0000
    922 C         -12.2049   41.9011    0.0887 C.3     1  UNL1        0.0000
    923 C          -7.3598   28.9490   12.9898 C.ar    1  UNL1        0.0000
    924 C         -20.7636   30.0254   13.0467 C.2     1  UNL1        0.0000
    925 C         -10.6934   33.9781    5.6056 C.3     1  UNL1        0.0000
    926 C         -15.1889   26.7202    7.5402 C.2     1  UNL1        0.0000
    927 C          -9.8279   24.5520   13.1012 C.3     1  UNL1        0.0000
    928 C         -12.2479   40.4652    0.0497 C.3     1  UNL1        0.0000
    929 C          -8.6351   28.2873   13.0430 C.3     1  UNL1        0.0000
    930 C         -19.3765   30.4883   13.0640 C.2     1  UNL1        0.0000
    931 C         -12.5610   33.1962    7.0787 C.ar    1  UNL1        0.0000
    932 C         -10.9187   31.1904    8.1546 C.ar    1  UNL1        0.0000
    933 C          -8.6199   39.5812    5.0587 C.2    10  UNL10       0.0000
    934 C         -22.0627   39.0732    6.0734 C.3    12  UNL12       0.0000
    935 C          -5.2593   29.6731    1.2398 C.2     1  UNL1        0.0000
    936 C         -16.5520   35.3689   11.9630 C.3     1  UNL1        0.0000
    937 C         -18.4044   36.4842    1.1102 C.2     9  UNL9        0.0000
    938 C         -21.3952   29.7756   11.8218 C.3     1  UNL1        0.0000
    939 C          -6.6026   38.2233    5.1127 C.2    10  UNL10       0.0000
    940 C          -1.0528   26.0590    6.0174 C.ar    1  UNL1        0.0000
    941 C         -10.4113   32.0517    7.1812 C.ar    1  UNL1        0.0000
    942 C         -13.0633   32.3323    8.0529 C.ar    1  UNL1        0.0000
    943 C          -6.6822   29.2432   11.7534 C.ar    1  UNL1        0.0000
    944 C         -17.1330   37.0086    1.1525 C.2     9  UNL9        0.0000
    945 C          -9.6059   22.3652   11.9106 C.ar    1  UNL1        0.0000
    946 C          -5.1884   28.2740    1.3189 C.2     1  UNL1        0.0000
    947 N          -5.1056   27.6760    2.5559 N.pl3   1  UNL1        0.0000
    948 N          -7.2614   29.0418   10.5174 N.pl3   1  UNL1        0.0000
    949 N          -6.0427   33.5110    7.6391 N.pl3   1  UNL1        0.0000
    950 N          -7.6252   24.7116    9.2844 N.pl3   1  UNL1        0.0000
    951 O          -6.8093   33.7763    5.0765 O.3     1  UNL1        0.0000
    952 O         -17.0978   30.1773    8.0200 O.3     1  UNL1        0.0000
    953 O          -9.6986   26.2972    9.6957 O.3     1  UNL1        0.0000
    954 O         -13.6179   38.6256    3.4226 O.3     1  UNL1        0.0000
    955 O         -12.7249   37.2667    5.0021 O.3     1  UNL1        0.0000
    956 O         -11.2671   26.4890    8.0781 O.3     1  UNL1        0.0000
    957 O          -5.2196   33.5093    3.4898 O.3     1  UNL1        0.0000
    958 O         -17.9477   31.5334    9.6244 O.3     1  UNL1        0.0000
    959 O          -7.8872   33.1627    2.5052 O.3     1  UNL1        0.0000
    960 O         -15.4118   30.7474   10.1096 O.3     1  UNL1        0.0000
    961 O          -7.0261   35.4808    2.9532 O.3     1  UNL1        0.0000
    962 O         -17.1001   28.9621   10.6096 O.3     1  UNL1        0.0000
    963 O         -12.3843   25.9164   10.6743 O.3     1  UNL1        0.0000
    964 O         -11.0745   37.8755    2.9093 O.3     1  UNL1        0.0000
    965 O         -11.5122   28.2103   10.2080 O.3     1  UNL1        0.0000
    966 O         -12.7214   36.0607    2.3989 O.3     1  UNL1        0.0000
    967 O          -9.4688   33.8413    5.2443 O.3     1  UNL1        0.0000
    968 O         -15.8800   27.7311    7.9235 O.2     1  UNL1        0.0000
    969 O          -9.9775   25.1437   11.9620 O.3     1  UNL1        0.0000
    970 O         -12.3004   39.7600    1.1444 O.3     1  UNL1        0.0000
    971 O          -9.2729   27.9581   11.9563 O.3     1  UNL1        0.0000
    972 O         -14.4714   37.8476    1.0941 O.3     1  UNL1        0.0000
    973 O         -14.0150   26.4657    7.9912 O.2     1  UNL1        0.0000
    974 O         -11.4696   34.8732    5.1176 O.3     1  UNL1        0.0000
    975 O          -4.8447   35.2063    1.0833 O.3     1  UNL1        0.0000
    976 O         -18.7920   30.7426   11.9440 O.2     1  UNL1        0.0000
    977 O          -5.5437   32.4259    1.1133 O.3     1  UNL1        0.0000
    978 O         -16.5868   32.6028   12.0151 O.2     1  UNL1        0.0000
    979 O          -9.7747   35.4892    3.0197 O.3     1  UNL1        0.0000
    980 O         -14.1909   28.3175   10.0169 O.3     1  UNL1        0.0000
    981 O          -7.2959   34.3538    0.0716 O.3     1  UNL1        0.0000
    982 O         -16.2822   30.0559   13.0448 O.3     1  UNL1        0.0000
    983 H         -13.9117   34.1391   12.3532 H      13  UNL13       0.0000
    984 H         -12.1915   32.8015   10.6060 H      13  UNL13       0.0000
    985 C         -13.1187   33.4249   12.5385 C.2    13  UNL13       0.0000
    986 H          -9.6210   32.5021   10.4885 H      13  UNL13       0.0000
    987 C         -12.2785   32.7640   11.6838 C.2    13  UNL13       0.0000
    988 H          -9.6970   41.6127    1.7375 H      10  UNL10       0.0000
    989 N          -8.4917   40.2477    0.7089 N.2    10  UNL10       0.0000
    990 C          -9.2550   31.9052   11.3334 C.3    13  UNL13       0.0000
    991 H          -8.7968   32.5764   12.0704 H      13  UNL13       0.0000
    992 C          -9.1587   40.6837    1.9401 C.3    10  UNL10       0.0000
    993 N         -11.4724   31.9453   12.4564 N.pl3  13  UNL13       0.0000
    994 H          -9.8686   39.9123    2.2624 H      10  UNL10       0.0000
    995 H          -8.4848   31.2187   10.9544 H      13  UNL13       0.0000
    996 C          -7.4935   39.3469    0.6399 C.2    10  UNL10       0.0000
    997 C         -10.3787   31.0838   11.9568 C.3    13  UNL13       0.0000
    998 H         -10.8134   30.3705   11.2434 H      13  UNL13       0.0000
    999 H          -8.4074   40.8546    2.7163 H      10  UNL10       0.0000
   1000 H          -7.0362   38.8414    1.4820 H      10  UNL10       0.0000
   1001 H         -10.0237   30.5058   12.8174 H      13  UNL13       0.0000
   1002 TI        -21.2248   23.6299   24.3754 Ti      1  UNL1        0.0000
   1003 TI        -10.5537   26.8977   14.9547 Ti      1  UNL1        0.0000
   1004 TI        -17.0038   19.8409   22.5273 Ti      1  UNL1        0.0000
   1005 TI        -15.8447   29.0570   16.7587 Ti      1  UNL1        0.0000
   1006 TI        -16.9118   30.7018   14.8622 Ti      1  UNL1        0.0000
   1007 TI        -15.0970   19.6501   24.4698 Ti      1  UNL1        0.0000
   1008 TI        -20.2263   21.9304   22.4763 Ti      1  UNL1        0.0000
   1009 TI        -12.5405   27.1286   16.8136 Ti      1  UNL1        0.0000
   1010 H         -14.6095   23.1671   21.6937 H       1  UNL1        0.0000
   1011 H         -25.3812   31.6572   19.5885 H      11  UNL11       0.0000
   1012 H         -13.9249   32.5251   17.7606 H      14  UNL14       0.0000
   1013 H         -20.8601   27.5424   24.1586 H       1  UNL1        0.0000
   1014 H          -9.6077   23.0218   15.2654 H       1  UNL1        0.0000
   1015 H         -25.1580   22.7364   24.0139 H       1  UNL1        0.0000
   1016 H          -7.2423   29.0183   15.1394 H       1  UNL1        0.0000
   1017 H         -13.9837   15.6525   24.0728 H       1  UNL1        0.0000
   1018 H         -20.9455   29.9706   15.2060 H       1  UNL1        0.0000
   1019 H         -13.6995   24.7186   19.9372 H       1  UNL1        0.0000
   1020 H         -18.4017   25.1848   21.5163 H       1  UNL1        0.0000
   1021 H          -5.9155   19.6862   19.4887 H       1  UNL1        0.0000
   1022 H         -20.6837   21.8463   26.0944 H       1  UNL1        0.0000
   1023 H         -12.4291   26.5919   13.2649 H       1  UNL1        0.0000
   1024 H         -14.5950   19.0078   18.9550 H       1  UNL1        0.0000
   1025 H         -17.6108   30.8286   20.3897 H       1  UNL1        0.0000
   1026 H         -24.4163   25.1756   22.1477 H       1  UNL1        0.0000
   1027 H          -7.7152   24.9078   17.2425 H       1  UNL1        0.0000
   1028 H         -22.0849   23.8132   18.7991 H       1  UNL1        0.0000
   1029 H         -20.0604   32.4178   17.2352 H       1  UNL1        0.0000
   1030 H         -16.6230   33.8154   15.7198 H      24  UNL24       0.0000
   1031 H          -9.6884   20.9972   16.4660 H       1  UNL1        0.0000
   1032 H         -13.7498   28.8118   15.4080 H       1  UNL1        0.0000
   1033 H         -18.1409   21.6490   23.8294 H       1  UNL1        0.0000
   1034 H         -10.9412   21.7332   22.8387 H       1  UNL1        0.0000
   1035 H         -12.4009   21.2120   23.5936 H       1  UNL1        0.0000
   1036 H         -10.5279   26.1854   21.7428 H       1  UNL1        0.0000
   1037 H         -11.1188   26.5259   20.1279 H       1  UNL1        0.0000
   1038 H         -11.2583   16.7646   22.6444 H       1  UNL1        0.0000
   1039 H         -12.5724   17.8194   23.1105 H       1  UNL1        0.0000
   1040 H         -16.9450   23.4260   22.4663 H       1  UNL1        0.0000
   1041 H         -17.4926   26.7415   19.7588 H       1  UNL1        0.0000
   1042 H         -12.6155   30.5838   16.9556 H      14  UNL14       0.0000
   1043 H         -10.3574   30.1244   17.8549 H      14  UNL14       0.0000
   1044 C          -9.9342   26.1736   17.8139 C.3     1  UNL1        0.0000
   1045 C         -22.2097   23.8611   21.5341 C.3     1  UNL1        0.0000
   1046 C         -14.3949   18.9218   21.5868 C.3     1  UNL1        0.0000
   1047 C         -17.8429   30.9578   17.7315 C.3     1  UNL1        0.0000
   1048 C          -9.0121   25.5997   18.8033 C.ar    1  UNL1        0.0000
   1049 C         -23.1683   24.4545   20.5632 C.2     1  UNL1        0.0000
   1050 C         -13.4392   18.3417   20.6336 C.ar    1  UNL1        0.0000
   1051 C         -18.7491   31.5720   18.7372 C.2     1  UNL1        0.0000
   1052 C          -9.2555   25.6642   20.2112 C.ar    1  UNL1        0.0000
   1053 C         -22.9556   24.3438   19.1738 C.3     1  UNL1        0.0000
   1054 C         -12.2814   17.6206   21.0793 C.ar    1  UNL1        0.0000
   1055 C         -19.8725   32.3069   18.2994 C.3     1  UNL1        0.0000
   1056 C         -18.4812   31.4086   20.0904 C.2     1  UNL1        0.0000
   1057 C         -13.6991   18.4668   19.2512 C.ar    1  UNL1        0.0000
   1058 C          -7.8575   24.9411   18.3203 C.ar    1  UNL1        0.0000
   1059 C         -24.2891   25.1076   21.0689 C.2     1  UNL1        0.0000
   1060 C         -15.5428   25.8218   19.7498 C.ar    1  UNL1        0.0000
   1061 C         -16.5544   24.0946   21.7011 C.ar    1  UNL1        0.0000
   1062 C         -12.1951   31.2407   17.7154 C.2    14  UNL14       0.0000
   1063 C         -20.0865   18.5697   19.6385 C.2     1  UNL1        0.0000
   1064 C          -9.6414   23.1027   13.1216 C.ar    1  UNL1        0.0000
   1065 C         -16.5174   34.6619   13.1989 C.2     1  UNL1        0.0000
   1066 C         -11.6723   21.7098   26.1001 C.ar    1  UNL1        0.0000
   1067 C         -25.0762   22.7862   26.1570 C.2     1  UNL1        0.0000
   1068 C         -15.0060   26.7389   18.7159 C.3     1  UNL1        0.0000
   1069 C         -19.5014   19.4810   20.6505 C.2     1  UNL1        0.0000
   1070 C         -14.1404   17.3128   26.2114 C.3     1  UNL1        0.0000
   1071 C         -16.5604   33.2260   13.1600 C.2     1  UNL1        0.0000
   1072 C         -12.9476   21.0481   26.1533 C.3     1  UNL1        0.0000
   1073 C         -23.6890   23.2491   26.1743 C.2     1  UNL1        0.0000
   1074 C         -16.8736   25.9570   20.1890 C.ar    1  UNL1        0.0000
   1075 C         -15.2312   23.9512   21.2649 C.ar    1  UNL1        0.0000
   1076 C         -12.9324   32.3420   18.1689 C.2    14  UNL14       0.0000
   1077 C         -26.3752   31.8340   19.1837 C.3    16  UNL16       0.0000
   1078 C          -9.5719   22.4339   14.3501 C.ar    1  UNL1        0.0000
   1079 C         -20.8645   28.1297   25.0733 C.3     1  UNL1        0.0000
   1080 C         -22.7169   29.2450   14.2205 C.2     1  UNL1        0.0000
   1081 C         -25.7078   22.5364   24.9321 C.3     1  UNL1        0.0000
   1082 C         -10.9152   30.9841   18.2230 C.2    14  UNL14       0.0000
   1083 C          -5.3653   18.8198   19.1277 C.ar    1  UNL1        0.0000
   1084 C         -14.7238   24.8125   20.2915 C.ar    1  UNL1        0.0000
   1085 C         -17.3758   25.0931   21.1632 C.ar    1  UNL1        0.0000
   1086 C         -10.9947   22.0040   24.8637 C.ar    1  UNL1        0.0000
   1087 C         -21.4456   29.7694   14.2627 C.2     1  UNL1        0.0000
   1088 C         -13.9184   15.1260   25.0209 C.ar    1  UNL1        0.0000
   1089 C          -9.5010   21.0348   14.4292 C.ar    1  UNL1        0.0000
   1090 N          -9.4182   20.4368   15.6662 N.pl3   1  UNL1        0.0000
   1091 N         -11.5739   21.8026   23.6277 N.pl3   1  UNL1        0.0000
   1092 N         -10.3552   26.2718   20.7494 N.pl3   1  UNL1        0.0000
   1093 N         -11.9378   17.4724   22.3946 N.pl3   1  UNL1        0.0000
   1094 O         -11.1219   26.5371   18.1868 O.3     1  UNL1        0.0000
   1095 O         -21.4103   22.9381   21.1303 O.3     1  UNL1        0.0000
   1096 O         -14.0112   19.0580   22.8060 O.3     1  UNL1        0.0000
   1097 O         -17.9304   31.3864   16.5329 O.3     1  UNL1        0.0000
   1098 O         -17.0374   30.0275   18.1124 O.3     1  UNL1        0.0000
   1099 O         -15.5797   19.2497   21.1883 O.3     1  UNL1        0.0000
   1100 O          -9.5322   26.2701   16.6000 O.3     1  UNL1        0.0000
   1101 O         -22.2602   24.2942   22.7347 O.3     1  UNL1        0.0000
   1102 O         -12.1997   25.9235   15.6155 O.3     1  UNL1        0.0000
   1103 O         -19.7243   23.5082   23.2199 O.3     1  UNL1        0.0000
   1104 O         -11.3386   28.2416   16.0635 O.3     1  UNL1        0.0000
   1105 O         -21.4126   21.7229   23.7199 O.3     1  UNL1        0.0000
   1106 O         -16.6968   18.6772   23.7846 O.3     1  UNL1        0.0000
   1107 O         -15.3870   30.6363   16.0195 O.3     1  UNL1        0.0000
   1108 O         -15.8248   20.9711   23.3183 O.3     1  UNL1        0.0000
   1109 O         -17.0339   28.8215   15.5092 O.3     1  UNL1        0.0000
   1110 O         -13.7813   26.6021   18.3546 O.3     1  UNL1        0.0000
   1111 O         -20.1926   20.4919   21.0338 O.2     1  UNL1        0.0000
   1112 O         -14.2900   17.9045   25.0723 O.3     1  UNL1        0.0000
   1113 O         -16.6129   32.5208   14.2546 O.2     1  UNL1        0.0000
   1114 O         -13.5855   20.7189   25.0666 O.3     1  UNL1        0.0000
   1115 O         -18.7839   30.6084   14.2044 O.2     1  UNL1        0.0000
   1116 O         -18.3275   19.2265   21.1014 O.2     1  UNL1        0.0000
   1117 O         -15.7821   27.6340   18.2279 O.3     1  UNL1        0.0000
   1118 O          -9.1572   27.9671   14.1936 O.3     1  UNL1        0.0000
   1119 O         -23.1045   23.5034   25.0543 O.2     1  UNL1        0.0000
   1120 O          -9.8563   25.1867   14.2236 O.3     1  UNL1        0.0000
   1121 O         -20.8993   25.3636   25.1254 O.2     1  UNL1        0.0000
   1122 O         -14.0873   28.2500   16.1299 O.3     1  UNL1        0.0000
   1123 O         -18.5034   21.0783   23.1272 O.3     1  UNL1        0.0000
   1124 O         -11.6084   27.1146   13.1819 O.3     1  UNL1        0.0000
   1125 O         -20.5947   22.8167   26.1551 O.3     1  UNL1        0.0000
   1126 H         -18.2243   26.8999   25.4635 H      17  UNL17       0.0000
   1127 H         -16.5040   25.5623   23.7162 H      17  UNL17       0.0000
   1128 C         -17.4312   26.1857   25.6488 C.2    17  UNL17       0.0000
   1129 H         -13.9335   25.2629   23.5988 H      17  UNL17       0.0000
   1130 C         -16.5910   25.5248   24.7940 C.2    17  UNL17       0.0000
   1131 H         -14.0095   34.3735   14.8478 H      13  UNL13       0.0000
   1132 N         -12.8042   33.0085   13.8192 N.pl3  13  UNL13       0.0000
   1133 C         -13.5675   24.6660   24.4437 C.3    17  UNL17       0.0000
   1134 H         -13.1093   25.3372   25.1807 H      17  UNL17       0.0000
   1135 C         -13.4712   33.4445   15.0504 C.3    13  UNL13       0.0000
   1136 N         -15.7849   24.7061   25.5666 N.pl3  17  UNL17       0.0000
   1137 H         -14.1811   32.6731   15.3727 H      13  UNL13       0.0000
   1138 H         -12.7973   23.9795   24.0647 H      17  UNL17       0.0000
   1139 C         -11.8060   32.1077   13.7501 C.3    13  UNL13       0.0000
   1140 C         -14.6912   23.8446   25.0671 C.3    17  UNL17       0.0000
   1141 H         -15.1260   23.1313   24.3536 H      17  UNL17       0.0000
   1142 H         -12.7199   33.6154   15.8266 H      13  UNL13       0.0000
   1143 H         -11.3488   31.6022   14.5923 H      13  UNL13       0.0000
   1144 H         -14.3362   23.2666   25.9277 H      17  UNL17       0.0000
   1145 TI        -25.5373   16.3907   37.4857 Ti      1  UNL1        0.0000
   1146 TI        -14.8662   19.6585   28.0650 Ti      1  UNL1        0.0000
   1147 TI        -21.3163   12.6017   35.6375 Ti      1  UNL1        0.0000
   1148 TI        -20.1573   21.8178   29.8690 Ti      1  UNL1        0.0000
   1149 TI        -21.2243   23.4626   27.9725 Ti      1  UNL1        0.0000
   1150 TI        -19.4095   12.4109   37.5800 Ti      1  UNL1        0.0000
   1151 TI        -24.5388   14.6912   35.5866 Ti      1  UNL1        0.0000
   1152 TI        -16.8530   19.8894   29.9238 Ti      1  UNL1        0.0000
   1153 H         -18.9220   15.9279   34.8039 H       1  UNL1        0.0000
   1154 H         -29.6938   24.4180   32.6988 H      12  UNL12       0.0000
   1155 H         -18.2374   25.2859   30.8709 H      18  UNL18       0.0000
   1156 H         -25.1726   20.3032   37.2689 H      13  UNL13       0.0000
   1157 H         -13.9202   15.7826   28.3757 H       1  UNL1        0.0000
   1158 H         -29.4705   15.4972   37.1242 H       1  UNL1        0.0000
   1159 H         -11.5548   21.7791   28.2496 H       1  UNL1        0.0000
   1160 H         -18.2962    8.4133   37.1831 H       7  UNL7        0.0000
   1161 H         -25.2580   22.7314   28.3163 H       1  UNL1        0.0000
   1162 H         -18.0120   17.4794   33.0474 H       1  UNL1        0.0000
   1163 H         -22.7142   17.9456   34.6266 H       1  UNL1        0.0000
   1164 H         -10.2281   12.4470   32.5990 H       1  UNL1        0.0000
   1165 H         -24.9962   14.6071   39.2047 H       1  UNL1        0.0000
   1166 H         -16.7417   19.3527   26.3751 H       1  UNL1        0.0000
   1167 H         -18.9075   11.7686   32.0653 H       1  UNL1        0.0000
   1168 H         -21.9234   23.5894   33.5000 H       1  UNL1        0.0000
   1169 H         -28.7289   17.9364   35.2580 H       1  UNL1        0.0000
   1170 H         -12.0277   17.6686   30.3527 H       1  UNL1        0.0000
   1171 H         -26.3975   16.5740   31.9094 H       1  UNL1        0.0000
   1172 H         -24.3729   25.1786   30.3455 H       1  UNL1        0.0000
   1173 H         -20.9355   26.5762   28.8301 H      24  UNL24       0.0000
   1174 H         -14.0009   13.7580   29.5763 H       1  UNL1        0.0000
   1175 H         -18.0623   21.5726   28.5183 H       1  UNL1        0.0000
   1176 H         -22.4534   14.4098   36.9397 H       1  UNL1        0.0000
   1177 H         -15.2538   14.4940   35.9489 H       1  UNL1        0.0000
   1178 H         -16.7134   13.9728   36.7038 H       1  UNL1        0.0000
   1179 H         -14.8405   18.9462   34.8530 H       1  UNL1        0.0000
   1180 H         -15.4314   19.2867   33.2382 H       1  UNL1        0.0000
   1181 H         -15.5709    9.5254   35.7547 H       1  UNL1        0.0000
   1182 H         -16.8850   10.5802   36.2207 H       1  UNL1        0.0000
   1183 H         -21.2575   16.1868   35.5766 H       1  UNL1        0.0000
   1184 H         -21.8052   19.5023   32.8691 H       1  UNL1        0.0000
   1185 H         -16.9280   23.3446   30.0659 H      18  UNL18       0.0000
   1186 H         -14.6699   22.8852   30.9651 H      18  UNL18       0.0000
   1187 C         -14.2467   18.9344   30.9242 C.3     1  UNL1        0.0000
   1188 C         -26.5223   16.6219   34.6444 C.3     1  UNL1        0.0000
   1189 C         -18.7074   11.6826   34.6971 C.3     1  UNL1        0.0000
   1190 C         -22.1554   23.7186   30.8418 C.3     1  UNL1        0.0000
   1191 C         -13.3247   18.3605   31.9136 C.ar    1  UNL1        0.0000
   1192 C         -27.4808   17.2153   33.6734 C.2     1  UNL1        0.0000
   1193 C         -17.7517   11.1025   33.7439 C.ar    1  UNL1        0.0000
   1194 C         -23.0616   24.3328   31.8474 C.2     1  UNL1        0.0000
   1195 C         -13.5680   18.4250   33.3215 C.ar    1  UNL1        0.0000
   1196 C         -27.2681   17.1046   32.2841 C.3     1  UNL1        0.0000
   1197 C         -16.5940   10.3814   34.1896 C.ar    1  UNL1        0.0000
   1198 C         -24.1850   25.0677   31.4097 C.3     1  UNL1        0.0000
   1199 C         -22.7937   24.1694   33.2006 C.2     1  UNL1        0.0000
   1200 C         -18.0116   11.2276   32.3615 C.ar    1  UNL1        0.0000
   1201 C         -12.1700   17.7019   31.4306 C.ar    1  UNL1        0.0000
   1202 C         -28.6016   17.8684   34.1792 C.2     1  UNL1        0.0000
   1203 C         -19.8553   18.5826   32.8601 C.ar    1  UNL1        0.0000
   1204 C         -20.8669   16.8554   34.8114 C.ar    1  UNL1        0.0000
   1205 C         -16.5076   24.0015   30.8257 C.2    18  UNL18       0.0000
   1206 C         -24.3990   11.3305   32.7488 C.2     1  UNL1        0.0000
   1207 C         -13.9539   15.8635   26.2319 C.ar    1  UNL1        0.0000
   1208 C         -20.8299   27.4227   26.3092 C.2     1  UNL1        0.0000
   1209 C         -15.9849   14.4706   39.2104 C.2     1  UNL1        0.0000
   1210 C         -29.3887   15.5470   39.2673 C.2     1  UNL1        0.0000
   1211 C         -19.3185   19.4997   31.8261 C.3     1  UNL1        0.0000
   1212 C         -23.8139   12.2418   33.7608 C.2     1  UNL1        0.0000
   1213 C         -18.4530   10.0736   39.3217 C.3     1  UNL1        0.0000
   1214 C         -20.8729   25.9868   26.2702 C.2     1  UNL1        0.0000
   1215 C         -17.2601   13.8089   39.2636 C.2     1  UNL1        0.0000
   1216 C         -28.0015   16.0099   39.2845 C.2     1  UNL1        0.0000
   1217 C         -21.1861   18.7178   33.2993 C.ar    1  UNL1        0.0000
   1218 C         -19.5438   16.7120   34.3751 C.ar    1  UNL1        0.0000
   1219 C         -17.2450   25.1028   31.2792 C.2    18  UNL18       0.0000
   1220 C         -30.6878   24.5948   32.2939 C.3    20  UNL20       0.0000
   1221 C         -13.8844   15.1947   27.4604 C.ar    1  UNL1        0.0000
   1222 C         -25.1771   20.8905   38.1835 C.3    21  UNL21       0.0000
   1223 C         -27.0295   22.0058   27.3308 C.2     1  UNL1        0.0000
   1224 C         -30.0203   15.2972   38.0424 C.3     1  UNL1        0.0000
   1225 C         -15.2277   23.7449   31.3332 C.2    18  UNL18       0.0000
   1226 C          -9.6778   11.5806   32.2379 C.ar    1  UNL1        0.0000
   1227 C         -19.0363   17.5732   33.4017 C.ar    1  UNL1        0.0000
   1228 C         -21.6884   17.8539   34.2734 C.ar    1  UNL1        0.0000
   1229 C         -15.3072   14.7648   37.9739 C.2     1  UNL1        0.0000
   1230 C         -25.7581   22.5302   27.3730 C.2     1  UNL1        0.0000
   1231 C         -18.2310    7.8867   38.1312 C.2     7  UNL7        0.0000
   1232 C         -13.8135   13.7956   27.5394 C.ar    1  UNL1        0.0000
   1233 N         -13.7307   13.1976   28.7764 N.pl3   1  UNL1        0.0000
   1234 N         -15.8865   14.5634   36.7380 N.pl3   1  UNL1        0.0000
   1235 N         -14.6678   19.0326   33.8596 N.pl3   1  UNL1        0.0000
   1236 N         -16.2503   10.2332   35.5049 N.pl3   1  UNL1        0.0000
   1237 O         -15.4344   19.2979   31.2971 O.3     1  UNL1        0.0000
   1238 O         -25.7229   15.6989   34.2406 O.3     1  UNL1        0.0000
   1239 O         -18.3237   11.8188   35.9163 O.3     1  UNL1        0.0000
   1240 O         -22.2429   24.1472   29.6432 O.3     1  UNL1        0.0000
   1241 O         -21.3500   22.7883   31.2227 O.3     1  UNL1        0.0000
   1242 O         -19.8922   12.0105   34.2986 O.3     1  UNL1        0.0000
   1243 O         -13.8447   19.0309   29.7103 O.3     1  UNL1        0.0000
   1244 O         -26.5727   17.0550   35.8450 O.3     1  UNL1        0.0000
   1245 O         -16.5123   18.6843   28.7258 O.3     1  UNL1        0.0000
   1246 O         -24.0369   16.2690   36.3302 O.3     1  UNL1        0.0000
   1247 O         -15.6512   21.0024   29.1737 O.3     1  UNL1        0.0000
   1248 O         -25.7252   14.4837   36.8302 O.3     1  UNL1        0.0000
   1249 O         -21.0093   11.4380   36.8949 O.3     1  UNL1        0.0000
   1250 O         -19.6995   23.3971   29.1298 O.3     1  UNL1        0.0000
   1251 O         -20.1373   13.7319   36.4286 O.3     1  UNL1        0.0000
   1252 O         -21.3464   21.5822   28.6194 O.3     1  UNL1        0.0000
   1253 O         -18.0938   19.3629   31.4649 O.3     1  UNL1        0.0000
   1254 O         -24.5051   13.2527   34.1441 O.2     1  UNL1        0.0000
   1255 O         -18.6026   10.6653   38.1826 O.3     1  UNL1        0.0000
   1256 O         -20.9254   25.2816   27.3649 O.2     1  UNL1        0.0000
   1257 O         -17.8980   13.4797   38.1769 O.2     1  UNL1        0.0000
   1258 O         -23.0964   23.3692   27.3147 O.2     1  UNL1        0.0000
   1259 O         -22.6400   11.9873   34.2117 O.2     1  UNL1        0.0000
   1260 O         -20.0947   20.3948   31.3382 O.3     1  UNL1        0.0000
   1261 O         -13.4698   20.7279   27.3039 O.3     1  UNL1        0.0000
   1262 O         -27.4171   16.2642   38.1645 O.2     1  UNL1        0.0000
   1263 O         -14.1688   17.9475   27.3338 O.3     1  UNL1        0.0000
   1264 O         -25.2119   18.1244   38.2357 O.3     1  UNL1        0.0000
   1265 O         -18.3998   21.0108   29.2402 O.3     1  UNL1        0.0000
   1266 O         -22.8160   13.8391   36.2375 O.3     1  UNL1        0.0000
   1267 O         -15.9210   19.8754   26.2921 O.3     1  UNL1        0.0000
   1268 O         -24.9072   15.5775   39.2653 O.3     1  UNL1        0.0000
   1269 H         -22.5368   19.6607   38.5738 H      22  UNL22       0.0000
   1270 H         -20.8166   18.3231   36.8265 H      22  UNL22       0.0000
   1271 C         -21.7437   18.9465   38.7591 C.2    22  UNL22       0.0000
   1272 H         -18.2461   18.0237   36.7090 H      22  UNL22       0.0000
   1273 C         -20.9036   18.2856   37.9043 C.2    22  UNL22       0.0000
   1274 H         -18.3220   27.1343   27.9581 H      17  UNL17       0.0000
   1275 N         -17.1168   25.7693   26.9294 N.pl3  17  UNL17       0.0000
   1276 C         -17.8800   17.4268   37.5540 C.3    22  UNL22       0.0000
   1277 H         -17.4219   18.0980   38.2909 H      22  UNL22       0.0000
   1278 C         -17.7837   26.2053   28.1606 C.3    17  UNL17       0.0000
   1279 N         -20.0974   17.4669   38.6769 N.pl3  22  UNL22       0.0000
   1280 H         -18.4937   25.4339   28.4830 H      17  UNL17       0.0000
   1281 H         -17.1099   16.7403   37.1749 H      22  UNL22       0.0000
   1282 C         -16.1185   24.8685   26.8604 C.3    17  UNL17       0.0000
   1283 C         -19.0038   16.6054   38.1774 C.3    22  UNL22       0.0000
   1284 H         -19.4385   15.8920   37.4639 H      22  UNL22       0.0000
   1285 H         -17.0324   26.3762   28.9369 H      17  UNL17       0.0000
   1286 H         -15.6613   24.3630   27.7026 H      17  UNL17       0.0000
   1287 H         -18.6487   16.0274   39.0380 H      22  UNL22       0.0000
   1288 TI         13.1410    2.1155   11.2652 Ti      1  UNL1        0.0000
   1289 TI         23.8121    5.3833    1.8444 Ti      1  UNL1        0.0000
   1290 TI         17.3620   -1.6735    9.4170 Ti      1  UNL1        0.0000
   1291 TI         18.5210    7.5426    3.6484 Ti      1  UNL1        0.0000
   1292 TI         17.4540    9.1874    1.7520 Ti      1  UNL1        0.0000
   1293 TI         19.2688   -1.8643   11.3595 Ti      1  UNL1        0.0000
   1294 TI         14.1395    0.4160    9.3660 Ti      1  UNL1        0.0000
   1295 TI         21.8253    5.6142    3.7033 Ti      1  UNL1        0.0000
   1296 H          19.7563    1.6527    8.5834 H       1  UNL1        0.0000
   1297 H           8.9846   10.1428    6.4782 H       1  UNL1        0.0000
   1298 H          20.4409   11.0107    4.6503 H       1  UNL1        0.0000
   1299 H          13.5057    6.0280   11.0484 H       1  UNL1        0.0000
   1300 H          24.7581    1.5074    2.1552 H      23  UNL23       0.0000
   1301 H           9.2078    1.2219   10.9036 H       1  UNL1        0.0000
   1302 H          27.1235    7.5039    2.0291 H      24  UNL24       0.0000
   1303 H          20.3821   -5.8619   10.9625 H       1  UNL1        0.0000
   1304 H          13.4203    8.4562    2.0957 H      14  UNL14       0.0000
   1305 H          20.6663    3.2042    6.8269 H       1  UNL1        0.0000
   1306 H          15.9641    3.6704    8.4060 H       1  UNL1        0.0000
   1307 H          28.4503   -1.8282    6.3785 H       1  UNL1        0.0000
   1308 H          13.6821    0.3319   12.9842 H       1  UNL1        0.0000
   1309 H          21.9367    5.0775    0.1546 H       1  UNL1        0.0000
   1310 H          19.7708   -2.5066    5.8447 H       1  UNL1        0.0000
   1311 H          16.7550    9.3142    7.2795 H       1  UNL1        0.0000
   1312 H           9.9495    3.6612    9.0374 H       1  UNL1        0.0000
   1313 H          26.6506    3.3934    4.1322 H       1  UNL1        0.0000
   1314 H          12.2809    2.2987    5.6889 H       1  UNL1        0.0000
   1315 H          14.3054   10.9034    4.1249 H       1  UNL1        0.0000
   1316 H          17.7428   12.3010    2.6096 H       1  UNL1        0.0000
   1317 H          24.6774   -0.5172    3.3557 H      23  UNL23       0.0000
   1318 H          20.6160    7.2974    2.2978 H       1  UNL1        0.0000
   1319 H          16.2249    0.1346   10.7192 H       1  UNL1        0.0000
   1320 H          23.4246    0.2188    9.7284 H       1  UNL1        0.0000
   1321 H          21.9649   -0.3025   10.4833 H       1  UNL1        0.0000
   1322 H          23.8379    4.6710    8.6325 H       1  UNL1        0.0000
   1323 H          23.2470    5.0115    7.0176 H       1  UNL1        0.0000
   1324 H          23.1075   -4.7498    9.5342 H       1  UNL1        0.0000
   1325 H          21.7934   -3.6950   10.0002 H       1  UNL1        0.0000
   1326 H          17.4208    1.9116    9.3560 H       1  UNL1        0.0000
   1327 H          16.8732    5.2270    6.6485 H       1  UNL1        0.0000
   1328 H          21.7503    9.0694    3.8453 H       1  UNL1        0.0000
   1329 H          24.0084    8.6100    4.7446 H       1  UNL1        0.0000
   1330 C          24.4316    4.6592    4.7037 C.3     1  UNL1        0.0000
   1331 C          12.1561    2.3467    8.4239 C.3     1  UNL1        0.0000
   1332 C          19.9709   -2.5926    8.4766 C.3     1  UNL1        0.0000
   1333 C          16.5229    9.4434    4.6213 C.3     1  UNL1        0.0000
   1334 C          25.3537    4.0852    5.6930 C.ar    1  UNL1        0.0000
   1335 C          11.1975    2.9401    7.4529 C.ar    1  UNL1        0.0000
   1336 C          20.9266   -3.1727    7.5233 C.2     1  UNL1        0.0000
   1337 C          15.6167   10.0576    5.6269 C.ar    1  UNL1        0.0000
   1338 C          25.1103    4.1498    7.1009 C.ar    1  UNL1        0.0000
   1339 C          11.4102    2.8294    6.0635 C.ar    1  UNL1        0.0000
   1340 C          22.0844   -3.8938    7.9691 C.2     1  UNL1        0.0000
   1341 C          14.4933   10.7925    5.1891 C.ar    1  UNL1        0.0000
   1342 C          15.8846    9.8942    6.9801 C.ar    1  UNL1        0.0000
   1343 C          20.6667   -3.0476    6.1410 C.3     1  UNL1        0.0000
   1344 C          26.5083    3.4267    5.2100 C.ar    1  UNL1        0.0000
   1345 C          10.0767    3.5932    7.9586 C.ar    1  UNL1        0.0000
   1346 C          18.8230    4.3074    6.6396 C.ar    1  UNL1        0.0000
   1347 C          17.8114    2.5801    8.5908 C.ar    1  UNL1        0.0000
   1348 C          22.1707    9.7262    4.6051 C.ar    1  UNL1        0.0000
   1349 C          14.2793   -2.9447    6.5282 C.2     1  UNL1        0.0000
   1350 C          24.7244    1.5883    0.0113 C.3    23  UNL23       0.0000
   1351 C          17.8484   13.1474    0.0887 C.2     1  UNL1        0.0000
   1352 C          22.6935    0.1954   12.9898 C.ar    1  UNL1        0.0000
   1353 C           9.2896    1.2718   13.0467 C.ar    1  UNL1        0.0000
   1354 C          19.3598    5.2245    5.6056 C.3     1  UNL1        0.0000
   1355 C          14.8644   -2.0334    7.5402 C.2     1  UNL1        0.0000
   1356 C          20.2253   -4.2016   13.1012 C.2     1  UNL1        0.0000
   1357 C          17.8054   11.7116    0.0497 C.2     1  UNL1        0.0000
   1358 C          21.4182   -0.4663   13.0430 C.3     1  UNL1        0.0000
   1359 C          10.6768    1.7347   13.0640 C.3     1  UNL1        0.0000
   1360 C          17.4922    4.4426    7.0787 C.ar    1  UNL1        0.0000
   1361 C          19.1346    2.4368    8.1546 C.ar    1  UNL1        0.0000
   1362 C          21.4334   10.8276    5.0587 C.ar    1  UNL1        0.0000
   1363 C           7.9906   10.3196    6.0734 C.ar    1  UNL1        0.0000
   1364 C          24.7939    0.9195    1.2398 C.2    23  UNL23       0.0000
   1365 C          13.5013    6.6153   11.9630 C.ar    1  UNL1        0.0000
   1366 C          11.6488    7.7305    1.1102 C.2    14  UNL14       0.0000
   1367 C           8.6580    1.0220   11.8218 C.ar    1  UNL1        0.0000
   1368 C          23.4506    9.4696    5.1127 C.ar    1  UNL1        0.0000
   1369 C          29.0005   -2.6946    6.0174 C.3     1  UNL1        0.0000
   1370 C          19.6420    3.2980    7.1812 C.ar    1  UNL1        0.0000
   1371 C          16.9899    3.5787    8.0529 C.ar    1  UNL1        0.0000
   1372 C          23.3711    0.4896   11.7534 C.ar    1  UNL1        0.0000
   1373 C          12.9202    8.2550    1.1525 C.2    14  UNL14       0.0000
   1374 C          20.4474   -6.3885   11.9106 C.3     1  UNL1        0.0000
   1375 C          24.8648   -0.4796    1.3189 C.2    23  UNL23       0.0000
   1376 N          24.9476   -1.0777    2.5559 N.pl3  23  UNL23       0.0000
   1377 N          22.7919    0.2882   10.5174 N.pl3   1  UNL1        0.0000
   1378 N          24.0106    4.7573    7.6391 N.pl3   1  UNL1        0.0000
   1379 N          22.4280   -4.0420    9.2844 N.pl3   1  UNL1        0.0000
   1380 O          23.2439    5.0226    5.0765 O.3     1  UNL1        0.0000
   1381 O          12.9554    1.4237    8.0200 O.3     1  UNL1        0.0000
   1382 O          20.3546   -2.4564    9.6957 O.3     1  UNL1        0.0000
   1383 O          16.4354    9.8719    3.4226 O.3     1  UNL1        0.0000
   1384 O          17.3284    8.5131    5.0021 O.3     1  UNL1        0.0000
   1385 O          18.7861   -2.2647    8.0781 O.3     1  UNL1        0.0000
   1386 O          24.8336    4.7557    3.4898 O.3     1  UNL1        0.0000
   1387 O          12.1056    2.7798    9.6244 O.3     1  UNL1        0.0000
   1388 O          22.1661    4.4091    2.5052 O.3     1  UNL1        0.0000
   1389 O          14.6415    1.9937   10.1096 O.3     1  UNL1        0.0000
   1390 O          23.0272    6.7272    2.9532 O.3     1  UNL1        0.0000
   1391 O          12.9532    0.2085   10.6096 O.3     1  UNL1        0.0000
   1392 O          17.6690   -2.8372   10.6743 O.3     1  UNL1        0.0000
   1393 O          18.9788    9.1219    2.9093 O.3     1  UNL1        0.0000
   1394 O          18.5410   -0.5433   10.2080 O.3     1  UNL1        0.0000
   1395 O          17.3319    7.3070    2.3989 O.3     1  UNL1        0.0000
   1396 O          20.5845    5.0877    5.2443 O.3     1  UNL1        0.0000
   1397 O          14.1732   -1.0225    7.9235 O.2     1  UNL1        0.0000
   1398 O          20.0758   -3.6099   11.9620 O.2     1  UNL1        0.0000
   1399 O          17.7529   11.0064    1.1444 O.2     1  UNL1        0.0000
   1400 O          20.7803   -0.7955   11.9563 O.3     1  UNL1        0.0000
   1401 O          15.5819    9.0940    1.0941 O.3     1  UNL1        0.0000
   1402 O          16.0383   -2.2879    7.9912 O.2     1  UNL1        0.0000
   1403 O          18.5837    6.1196    5.1176 O.3     1  UNL1        0.0000
   1404 O          25.2086    6.4527    1.0833 O.3     1  UNL1        0.0000
   1405 O          11.2612    1.9890   11.9440 O.3     1  UNL1        0.0000
   1406 O          24.5095    3.6723    1.1133 O.3     1  UNL1        0.0000
   1407 O          13.4665    3.8491   12.0151 O.3     1  UNL1        0.0000
   1408 O          20.2785    6.7356    3.0197 O.3     1  UNL1        0.0000
   1409 O          15.8624   -0.4361   10.0169 O.3     1  UNL1        0.0000
   1410 O          22.7573    5.6001    0.0716 O.3     1  UNL1        0.0000
   1411 O          13.7711    1.3023   13.0448 O.3     1  UNL1        0.0000
   1412 H          16.1415    5.3855   12.3532 H      25  UNL25       0.0000
   1413 H          17.8618    4.0479   10.6060 H      25  UNL25       0.0000
   1414 C          16.9346    4.6713   12.5385 C.2    25  UNL25       0.0000
   1415 H          20.4322    3.7484   10.4885 H      25  UNL25       0.0000
   1416 C          17.7747    4.0104   11.6838 C.2    25  UNL25       0.0000
   1417 H          20.3563   12.8590    1.7375 H      15  UNL15       0.0000
   1418 N          21.5615   11.4941    0.7089 N.2    15  UNL15       0.0000
   1419 C          20.7983    3.1516   11.3334 C.3    25  UNL25       0.0000
   1420 H          21.2565    3.8228   12.0704 H      25  UNL25       0.0000
   1421 C          20.8946   11.9301    1.9401 C.3    15  UNL15       0.0000
   1422 N          18.5809    3.1917   12.4564 N.pl3  25  UNL25       0.0000
   1423 H          20.1847   11.1587    2.2624 H      15  UNL15       0.0000
   1424 H          21.5685    2.4651   10.9544 H      25  UNL25       0.0000
   1425 C          22.5598   10.5933    0.6399 C.2    15  UNL15       0.0000
   1426 C          19.6746    2.3302   11.9568 C.3    25  UNL25       0.0000
   1427 H          19.2398    1.6168   11.2434 H      25  UNL25       0.0000
   1428 H          21.6459   12.1009    2.7163 H      15  UNL15       0.0000
   1429 H          23.0170   10.0878    1.4820 H      15  UNL15       0.0000
   1430 H          20.0296    1.7522   12.8174 H      25  UNL25       0.0000
   1431 TI          8.8285   -5.1237   24.3754 Ti      1  UNL1        0.0000
   1432 TI         19.4996   -1.8559   14.9547 Ti      1  UNL1        0.0000
   1433 TI         13.0495   -8.9127   22.5273 Ti      1  UNL1        0.0000
   1434 TI         14.2085    0.3034   16.7587 Ti      1  UNL1        0.0000
   1435 TI         13.1415    1.9482   14.8622 Ti      1  UNL1        0.0000
   1436 TI         14.9563   -9.1035   24.4698 Ti      1  UNL1        0.0000
   1437 TI          9.8270   -6.8232   22.4763 Ti      1  UNL1        0.0000
   1438 TI         17.5128   -1.6250   16.8136 Ti      1  UNL1        0.0000
   1439 H          15.4438   -5.5865   21.6937 H       1  UNL1        0.0000
   1440 H           4.6720    2.9036   19.5885 H       1  UNL1        0.0000
   1441 H          16.1284    3.7715   17.7606 H       1  UNL1        0.0000
   1442 H           9.1932   -1.2112   24.1586 H       1  UNL1        0.0000
   1443 H          20.4456   -5.7318   15.2654 H       1  UNL1        0.0000
   1444 H           4.8953   -6.0173   24.0139 H       1  UNL1        0.0000
   1445 H          22.8110    0.2647   15.1394 H       1  UNL1        0.0000
   1446 H          16.0696  -13.1011   24.0728 H       1  UNL1        0.0000
   1447 H           9.1078    1.2170   15.2060 H       1  UNL1        0.0000
   1448 H          16.3538   -4.0350   19.9372 H       1  UNL1        0.0000
   1449 H          11.6516   -3.5688   21.5163 H       1  UNL1        0.0000
   1450 H          24.1377   -9.0674   19.4887 H       1  UNL1        0.0000
   1451 H           9.3696   -6.9073   26.0944 H       1  UNL1        0.0000
   1452 H          17.6241   -2.1617   13.2649 H       1  UNL1        0.0000
   1453 H          15.4583   -9.7458   18.9550 H       1  UNL1        0.0000
   1454 H          12.4424    2.0750   20.3897 H       1  UNL1        0.0000
   1455 H           5.6369   -3.5780   22.1477 H       1  UNL1        0.0000
   1456 H          22.3381   -3.8458   17.2425 H       1  UNL1        0.0000
   1457 H           7.9683   -4.9405   18.7991 H       1  UNL1        0.0000
   1458 H           9.9929    3.6642   17.2352 H       1  UNL1        0.0000
   1459 H          13.4303    5.0618   15.7198 H       1  UNL1        0.0000
   1460 H          20.3649   -7.7564   16.4660 H       1  UNL1        0.0000
   1461 H          16.3035    0.0582   15.4080 H       1  UNL1        0.0000
   1462 H          11.9123   -7.1046   23.8294 H       1  UNL1        0.0000
   1463 H          19.1120   -7.0204   22.8387 H       1  UNL1        0.0000
   1464 H          17.6523   -7.5417   23.5936 H       1  UNL1        0.0000
   1465 H          19.5253   -2.5682   21.7428 H       1  UNL1        0.0000
   1466 H          18.9344   -2.2277   20.1279 H       1  UNL1        0.0000
   1467 H          18.7949  -11.9890   22.6444 H       1  UNL1        0.0000
   1468 H          17.4808  -10.9342   23.1105 H       1  UNL1        0.0000
   1469 H          13.1083   -5.3276   22.4663 H       1  UNL1        0.0000
   1470 H          12.5606   -2.0122   19.7588 H       1  UNL1        0.0000
   1471 H          17.4378    1.8302   16.9556 H       1  UNL1        0.0000
   1472 H          19.6959    1.3708   17.8549 H       1  UNL1        0.0000
   1473 C          20.1191   -2.5800   17.8139 C.3     1  UNL1        0.0000
   1474 C           7.8435   -4.8925   21.5341 C.3     1  UNL1        0.0000
   1475 C          15.6584   -9.8318   21.5868 C.3     1  UNL1        0.0000
   1476 C          12.2104    2.2042   17.7315 C.3     1  UNL1        0.0000
   1477 C          21.0411   -3.1540   18.8033 C.ar    1  UNL1        0.0000
   1478 C           6.8850   -4.2991   20.5632 C.ar    1  UNL1        0.0000
   1479 C          16.6141  -10.4119   20.6336 C.2     1  UNL1        0.0000
   1480 C          11.3042    2.8184   18.7372 C.ar    1  UNL1        0.0000
   1481 C          20.7978   -3.0894   20.2112 C.ar    1  UNL1        0.0000
   1482 C           7.0977   -4.4098   19.1738 C.ar    1  UNL1        0.0000
   1483 C          17.7718  -11.1330   21.0793 C.2     1  UNL1        0.0000
   1484 C          10.1807    3.5533   18.2994 C.ar    1  UNL1        0.0000
   1485 C          11.5720    2.6550   20.0904 C.ar    1  UNL1        0.0000
   1486 C          16.3542  -10.2868   19.2512 C.3     1  UNL1        0.0000
   1487 C          22.1958   -3.8125   18.3203 C.ar    1  UNL1        0.0000
   1488 C           5.7642   -3.6460   21.0689 C.ar    1  UNL1        0.0000
   1489 C          14.5105   -2.9318   19.7498 C.ar    1  UNL1        0.0000
   1490 C          13.4989   -4.6591   21.7011 C.ar    1  UNL1        0.0000
   1491 C          17.8582    2.4870   17.7154 C.ar    1  UNL1        0.0000
   1492 C           9.9668  -10.1839   19.6385 C.2     1  UNL1        0.0000
   1493 C          20.4119   -5.6509   13.1216 C.2     1  UNL1        0.0000
   1494 C          13.5359    5.9082   13.1989 C.ar    1  UNL1        0.0000
   1495 C          18.3809   -7.0438   26.1001 C.ar    1  UNL1        0.0000
   1496 C           4.9771   -5.9674   26.1570 C.ar    1  UNL1        0.0000
   1497 C          15.0473   -2.0147   18.7159 C.3     1  UNL1        0.0000
   1498 C          10.5519   -9.2726   20.6505 C.2     1  UNL1        0.0000
   1499 C          15.9128  -11.4408   26.2114 C.2     1  UNL1        0.0000
   1500 C          13.4929    4.4724   13.1600 C.3     1  UNL1        0.0000
   1501 C          17.1056   -7.7055   26.1533 C.3     1  UNL1        0.0000
   1502 C           6.3643   -5.5045   26.1743 C.3     1  UNL1        0.0000
   1503 C          13.1797   -2.7966   20.1890 C.ar    1  UNL1        0.0000
   1504 C          14.8220   -4.8024   21.2649 C.ar    1  UNL1        0.0000
   1505 C          17.1208    3.5884   18.1689 C.ar    1  UNL1        0.0000
   1506 C           3.6780    3.0804   19.1837 C.ar    1  UNL1        0.0000
   1507 C          20.4814   -6.3197   14.3501 C.2     1  UNL1        0.0000
   1508 C           9.1887   -0.6239   25.0733 C.ar    1  UNL1        0.0000
   1509 C           7.3363    0.4913   14.2205 C.ar    1  UNL1        0.0000
   1510 C           4.3455   -6.2172   24.9321 C.ar    1  UNL1        0.0000
   1511 C          19.1381    2.2304   18.2230 C.ar    1  UNL1        0.0000
   1512 C          24.6880   -9.9338   19.1277 C.3     1  UNL1        0.0000
   1513 C          15.3294   -3.9412   20.2915 C.ar    1  UNL1        0.0000
   1514 C          12.6774   -3.6605   21.1632 C.ar    1  UNL1        0.0000
   1515 C          19.0586   -6.7496   24.8637 C.ar    1  UNL1        0.0000
   1516 C           8.6077    1.0158   14.2627 C.ar    1  UNL1        0.0000
   1517 C          16.1348  -13.6277   25.0209 C.3     1  UNL1        0.0000
   1518 C          20.5523   -7.7188   14.4292 C.2     1  UNL1        0.0000
   1519 N          20.6351   -8.3169   15.6662 N.pl3   1  UNL1        0.0000
   1520 N          18.4793   -6.9510   23.6277 N.pl3   1  UNL1        0.0000
   1521 N          19.6980   -2.4819   20.7494 N.pl3   1  UNL1        0.0000
   1522 N          18.1155  -11.2812   22.3946 N.pl3   1  UNL1        0.0000
   1523 O          18.9314   -2.2166   18.1868 O.3     1  UNL1        0.0000
   1524 O           8.6429   -5.8155   21.1303 O.3     1  UNL1        0.0000
   1525 O          16.0421   -9.6956   22.8060 O.3     1  UNL1        0.0000
   1526 O          12.1229    2.6327   16.5329 O.3     1  UNL1        0.0000
   1527 O          13.0158    1.2739   18.1124 O.3     1  UNL1        0.0000
   1528 O          14.4736   -9.5039   21.1883 O.3     1  UNL1        0.0000
   1529 O          20.5211   -2.4835   16.6000 O.3     1  UNL1        0.0000
   1530 O           7.7931   -4.4594   22.7347 O.3     1  UNL1        0.0000
   1531 O          17.8535   -2.8301   15.6155 O.3     1  UNL1        0.0000
   1532 O          10.3289   -5.2455   23.2199 O.3     1  UNL1        0.0000
   1533 O          18.7146   -0.5120   16.0635 O.3     1  UNL1        0.0000
   1534 O           8.6406   -7.0307   23.7199 O.3     1  UNL1        0.0000
   1535 O          13.3565  -10.0764   23.7846 O.3     1  UNL1        0.0000
   1536 O          14.6663    1.8827   16.0195 O.3     1  UNL1        0.0000
   1537 O          14.2285   -7.7825   23.3183 O.3     1  UNL1        0.0000
   1538 O          13.0193    0.0678   15.5092 O.3     1  UNL1        0.0000
   1539 O          16.2719   -2.1515   18.3546 O.3     1  UNL1        0.0000
   1540 O           9.8607   -8.2617   21.0338 O.2     1  UNL1        0.0000
   1541 O          15.7632  -10.8492   25.0723 O.2     1  UNL1        0.0000
   1542 O          13.4404    3.7672   14.2546 O.3     1  UNL1        0.0000
   1543 O          16.4678   -8.0347   25.0666 O.3     1  UNL1        0.0000
   1544 O          11.2694    1.8548   14.2044 O.3     1  UNL1        0.0000
   1545 O          11.7258   -9.5271   21.1014 O.2     1  UNL1        0.0000
   1546 O          14.2711   -1.1196   18.2279 O.3     1  UNL1        0.0000
   1547 O          20.8960   -0.7865   14.1936 O.3     1  UNL1        0.0000
   1548 O           6.9487   -5.2502   25.0543 O.3     1  UNL1        0.0000
   1549 O          20.1970   -3.5669   14.2236 O.2     1  UNL1        0.0000
   1550 O           9.1539   -3.3901   25.1254 O.3     1  UNL1        0.0000
   1551 O          15.9660   -0.5036   16.1299 O.3     1  UNL1        0.0000
   1552 O          11.5498   -7.6753   23.1272 O.3     1  UNL1        0.0000
   1553 O          18.4448   -1.6391   13.1819 O.3     1  UNL1        0.0000
   1554 O           9.4586   -5.9369   26.1551 O.3     1  UNL1        0.0000
   1555 H          11.8290   -1.8537   25.4635 H      26  UNL26       0.0000
   1556 H          13.5492   -3.1913   23.7162 H      26  UNL26       0.0000
   1557 C          12.6221   -2.5679   25.6488 C.2    26  UNL26       0.0000
   1558 H          16.1197   -3.4908   23.5988 H      26  UNL26       0.0000
   1559 C          13.4622   -3.2288   24.7940 C.2    26  UNL26       0.0000
   1560 H          16.0438    5.6198   14.8478 H      25  UNL25       0.0000
   1561 N          17.2490    4.2549   13.8192 N.pl3  25  UNL25       0.0000
   1562 C          16.4858   -4.0876   24.4437 C.3    26  UNL26       0.0000
   1563 H          16.9439   -3.4164   25.1807 H      26  UNL26       0.0000
   1564 C          16.5821    4.6909   15.0504 C.3    25  UNL25       0.0000
   1565 N          14.2684   -4.0475   25.5666 N.pl3  26  UNL26       0.0000
   1566 H          15.8721    3.9195   15.3727 H      25  UNL25       0.0000
   1567 H          17.2559   -4.7741   24.0647 H      26  UNL26       0.0000
   1568 C          18.2473    3.3541   13.7501 C.3    25  UNL25       0.0000
   1569 C          15.3620   -4.9090   25.0671 C.3    26  UNL26       0.0000
   1570 H          14.9273   -5.6224   24.3536 H      26  UNL26       0.0000
   1571 H          17.3334    4.8617   15.8266 H      25  UNL25       0.0000
   1572 H          18.7045    2.8486   14.5923 H      25  UNL25       0.0000
   1573 H          15.7170   -5.4870   25.9277 H      26  UNL26       0.0000
   1574 TI          4.5160  -12.3629   37.4857 Ti      1  UNL1        0.0000
   1575 TI         15.1870   -9.0951   28.0650 Ti      1  UNL1        0.0000
   1576 TI          8.7370  -16.1519   35.6375 Ti      1  UNL1        0.0000
   1577 TI          9.8960   -6.9358   29.8690 Ti      1  UNL1        0.0000
   1578 TI          8.8289   -5.2910   27.9725 Ti      1  UNL1        0.0000
   1579 TI         10.6438  -16.3427   37.5800 Ti      1  UNL1        0.0000
   1580 TI          5.5144  -14.0624   35.5866 Ti      1  UNL1        0.0000
   1581 TI         13.2002   -8.8642   29.9238 Ti      1  UNL1        0.0000
   1582 H          11.1312  -12.8257   34.8039 H       1  UNL1        0.0000
   1583 H           0.3595   -4.3356   32.6988 H       1  UNL1        0.0000
   1584 H          11.8158   -3.4677   30.8709 H       1  UNL1        0.0000
   1585 H           4.8807   -8.4504   37.2689 H      16  UNL16       0.0000
   1586 H          16.1331  -12.9710   28.3757 H       1  UNL1        0.0000
   1587 H           0.5827  -13.2565   37.1242 H       1  UNL1        0.0000
   1588 H          18.4984   -6.9745   28.2496 H       1  UNL1        0.0000
   1589 H          11.7570  -20.3403   37.1831 H      17  UNL17       0.0000
   1590 H           4.7953   -6.0222   28.3163 H       1  UNL1        0.0000
   1591 H          12.0412  -11.2742   33.0474 H       1  UNL1        0.0000
   1592 H           7.3390  -10.8080   34.6266 H       1  UNL1        0.0000
   1593 H          19.8252  -16.3066   32.5990 H       1  UNL1        0.0000
   1594 H           5.0571  -14.1465   39.2047 H       1  UNL1        0.0000
   1595 H          13.3116   -9.4009   26.3751 H       1  UNL1        0.0000
   1596 H          11.1457  -16.9850   32.0653 H       1  UNL1        0.0000
   1597 H           8.1299   -5.1642   33.5000 H       1  UNL1        0.0000
   1598 H           1.3244  -10.8172   35.2580 H       1  UNL1        0.0000
   1599 H          18.0255  -11.0850   30.3527 H       1  UNL1        0.0000
   1600 H           3.6558  -12.1797   31.9094 H       1  UNL1        0.0000
   1601 H           5.6803   -3.5750   30.3455 H       1  UNL1        0.0000
   1602 H           9.1177   -2.1774   28.8301 H       1  UNL1        0.0000
   1603 H          16.0523  -14.9956   29.5763 H       1  UNL1        0.0000
   1604 H          11.9909   -7.1810   28.5183 H       1  UNL1        0.0000
   1605 H           7.5998  -14.3438   36.9397 H       1  UNL1        0.0000
   1606 H          14.7995  -14.2596   35.9489 H       1  UNL1        0.0000
   1607 H          13.3398  -14.7809   36.7038 H       1  UNL1        0.0000
   1608 H          15.2128   -9.8074   34.8530 H       1  UNL1        0.0000
   1609 H          14.6219   -9.4669   33.2382 H       1  UNL1        0.0000
   1610 H          14.4824  -19.2282   35.7547 H       1  UNL1        0.0000
   1611 H          13.1683  -18.1734   36.2207 H       1  UNL1        0.0000
   1612 H           8.7958  -12.5668   35.5766 H       1  UNL1        0.0000
   1613 H           8.2481   -9.2514   32.8691 H       1  UNL1        0.0000
   1614 H          13.1252   -5.4090   30.0659 H       1  UNL1        0.0000
   1615 H          15.3833   -5.8684   30.9651 H       1  UNL1        0.0000
   1616 C          15.8065   -9.8192   30.9242 C.3     1  UNL1        0.0000
   1617 C           3.5310  -12.1317   34.6444 C.3     1  UNL1        0.0000
   1618 C          11.3458  -17.0710   34.6971 C.3     1  UNL1        0.0000
   1619 C           7.8978   -5.0350   30.8418 C.3     1  UNL1        0.0000
   1620 C          16.7286  -10.3932   31.9136 C.ar    1  UNL1        0.0000
   1621 C           2.5724  -11.5383   33.6734 C.ar    1  UNL1        0.0000
   1622 C          12.3016  -17.6511   33.7439 C.2     1  UNL1        0.0000
   1623 C           6.9917   -4.4208   31.8474 C.ar    1  UNL1        0.0000
   1624 C          16.4852  -10.3286   33.3215 C.ar    1  UNL1        0.0000
   1625 C           2.7851  -11.6490   32.2841 C.ar    1  UNL1        0.0000
   1626 C          13.4593  -18.3722   34.1896 C.2     1  UNL1        0.0000
   1627 C           5.8682   -3.6859   31.4097 C.ar    1  UNL1        0.0000
   1628 C           7.2595   -4.5842   33.2006 C.ar    1  UNL1        0.0000
   1629 C          12.0417  -17.5261   32.3615 C.3     1  UNL1        0.0000
   1630 C          17.8832  -11.0517   31.4306 C.ar    1  UNL1        0.0000
   1631 C           1.4517  -10.8852   34.1792 C.ar    1  UNL1        0.0000
   1632 C          10.1979  -10.1710   32.8601 C.ar    1  UNL1        0.0000
   1633 C           9.1864  -11.8983   34.8114 C.ar    1  UNL1        0.0000
   1634 C          13.5457   -4.7522   30.8257 C.ar    1  UNL1        0.0000
   1635 C           5.6543  -17.4231   32.7488 C.2     1  UNL1        0.0000
   1636 C          16.0994  -12.8901   26.2319 C.2     1  UNL1        0.0000
   1637 C           9.2233   -1.3310   26.3092 C.ar    1  UNL1        0.0000
   1638 C          14.0684  -14.2830   39.2104 C.2     1  UNL1        0.0000
   1639 C           0.6646  -13.2066   39.2673 C.2     1  UNL1        0.0000
   1640 C          10.7348   -9.2539   31.8261 C.3     1  UNL1        0.0000
   1641 C           6.2393  -16.5118   33.7608 C.2     1  UNL1        0.0000
   1642 C          11.6003  -18.6800   39.3217 C.3     1  UNL1        0.0000
   1643 C           9.1803   -2.7668   26.2702 C.3     1  UNL1        0.0000
   1644 C          12.7931  -14.9447   39.2636 C.2     1  UNL1        0.0000
   1645 C           2.0517  -12.7437   39.2845 C.2     1  UNL1        0.0000
   1646 C           8.8671  -10.0358   33.2993 C.ar    1  UNL1        0.0000
   1647 C          10.5095  -12.0416   34.3751 C.ar    1  UNL1        0.0000
   1648 C          12.8083   -3.6508   31.2792 C.ar    1  UNL1        0.0000
   1649 C          -0.6345   -4.1588   32.2939 C.ar    1  UNL1        0.0000
   1650 C          16.1689  -13.5589   27.4604 C.2     1  UNL1        0.0000
   1651 C           4.8762   -7.8631   38.1835 C.2    16  UNL16       0.0000
   1652 C           3.0238   -6.7479   27.3308 C.ar    1  UNL1        0.0000
   1653 C           0.0330  -13.4564   38.0424 C.2     1  UNL1        0.0000
   1654 C          14.8256   -5.0088   31.3332 C.ar    1  UNL1        0.0000
   1655 C          20.3754  -17.1730   32.2379 C.3     1  UNL1        0.0000
   1656 C          11.0169  -11.1804   33.4017 C.ar    1  UNL1        0.0000
   1657 C           8.3649  -10.8997   34.2734 C.ar    1  UNL1        0.0000
   1658 C          14.7460  -13.9888   37.9739 C.2     1  UNL1        0.0000
   1659 C           4.2951   -6.2234   27.3730 C.ar    1  UNL1        0.0000
   1660 C          11.8223  -20.8669   38.1312 C.3    27  UNL27       0.0000
   1661 C          16.2398  -14.9580   27.5394 C.2     1  UNL1        0.0000
   1662 N          16.3226  -15.5561   28.7764 N.pl3   1  UNL1        0.0000
   1663 N          14.1668  -14.1902   36.7380 N.pl3   1  UNL1        0.0000
   1664 N          15.3855   -9.7211   33.8596 N.pl3   1  UNL1        0.0000
   1665 N          13.8030  -18.5204   35.5049 N.pl3   1  UNL1        0.0000
   1666 O          14.6189   -9.4558   31.2971 O.3     1  UNL1        0.0000
   1667 O           4.3304  -13.0547   34.2406 O.3     1  UNL1        0.0000
   1668 O          11.7296  -16.9348   35.9163 O.3     1  UNL1        0.0000
   1669 O           7.8103   -4.6065   29.6432 O.3     1  UNL1        0.0000
   1670 O           8.7033   -5.9653   31.2227 O.3     1  UNL1        0.0000
   1671 O          10.1611  -16.7431   34.2986 O.3     1  UNL1        0.0000
   1672 O          16.2086   -9.7227   29.7103 O.3     1  UNL1        0.0000
   1673 O           3.4805  -11.6986   35.8450 O.3     1  UNL1        0.0000
   1674 O          13.5410  -10.0693   28.7258 O.3     1  UNL1        0.0000
   1675 O           6.0164  -12.4847   36.3302 O.3     1  UNL1        0.0000
   1676 O          14.4021   -7.7512   29.1737 O.3     1  UNL1        0.0000
   1677 O           4.3281  -14.2699   36.8302 O.3     1  UNL1        0.0000
   1678 O           9.0439  -17.3156   36.8949 O.3     1  UNL1        0.0000
   1679 O          10.3537   -5.3565   29.1298 O.3     1  UNL1        0.0000
   1680 O           9.9160  -15.0217   36.4286 O.3     1  UNL1        0.0000
   1681 O           8.7068   -7.1714   28.6194 O.3     1  UNL1        0.0000
   1682 O          11.9594   -9.3907   31.4649 O.3     1  UNL1        0.0000
   1683 O           5.5482  -15.5009   34.1441 O.2     1  UNL1        0.0000
   1684 O          11.4507  -18.0884   38.1826 O.3     1  UNL1        0.0000
   1685 O           9.1278   -3.4720   27.3649 O.3     1  UNL1        0.0000
   1686 O          12.1553  -15.2739   38.1769 O.2     1  UNL1        0.0000
   1687 O           6.9568   -5.3844   27.3147 O.3     1  UNL1        0.0000
   1688 O           7.4132  -16.7663   34.2117 O.2     1  UNL1        0.0000
   1689 O           9.9586   -8.3588   31.3382 O.3     1  UNL1        0.0000
   1690 O          16.5835   -8.0257   27.3039 O.3     1  UNL1        0.0000
   1691 O           2.6362  -12.4894   38.1645 O.2     1  UNL1        0.0000
   1692 O          15.8845  -10.8061   27.3338 O.2     1  UNL1        0.0000
   1693 O           4.8414  -10.6293   38.2357 O.3     1  UNL1        0.0000
   1694 O          11.6535   -7.7428   29.2402 O.3     1  UNL1        0.0000
   1695 O           7.2373  -14.9145   36.2375 O.3     1  UNL1        0.0000
   1696 O          14.1323   -8.8783   26.2921 O.3     1  UNL1        0.0000
   1697 O           5.1460  -13.1761   39.2653 O.3     1  UNL1        0.0000
   1698 H           7.5165   -9.0929   38.5738 H      28  UNL28       0.0000
   1699 H           9.2367  -10.4305   36.8265 H      28  UNL28       0.0000
   1700 C           8.3095   -9.8071   38.7591 C.3    28  UNL28       0.0000
   1701 H          11.8072  -10.7300   36.7090 H      28  UNL28       0.0000
   1702 C           9.1497  -10.4680   37.9043 C.2    28  UNL28       0.0000
   1703 H          11.7312   -1.6194   27.9581 H      26  UNL26       0.0000
   1704 N          12.9365   -2.9843   26.9294 N.pl3  26  UNL26       0.0000
   1705 C          12.1732  -11.3268   37.5540 C.3    28  UNL28       0.0000
   1706 H          12.6314  -10.6556   38.2909 H      28  UNL28       0.0000
   1707 C          12.2695   -2.5483   28.1606 C.3    26  UNL26       0.0000
   1708 N           9.9558  -11.2867   38.6769 N.2    28  UNL28       0.0000
   1709 H          11.5596   -3.3198   28.4830 H      26  UNL26       0.0000
   1710 H          12.9434  -12.0133   37.1749 H      28  UNL28       0.0000
   1711 C          13.9347   -3.8852   26.8604 C.3    26  UNL26       0.0000
   1712 C          11.0495  -12.1483   38.1774 C.3    28  UNL28       0.0000
   1713 H          10.6148  -12.8616   37.4639 H      28  UNL28       0.0000
   1714 H          13.0208   -2.3775   28.9369 H      26  UNL26       0.0000
   1715 H          14.3920   -4.3906   27.7026 H      26  UNL26       0.0000
   1716 H          11.4045  -12.7262   39.0380 H      28  UNL28       0.0000
   1717 TI          6.1191   16.4923   11.2652 Ti      1  UNL1        0.0000
   1718 TI         16.7902   19.7601    1.8444 Ti      1  UNL1        0.0000
   1719 TI         10.3401   12.7033    9.4170 Ti      1  UNL1        0.0000
   1720 TI         11.4991   21.9194    3.6484 Ti      1  UNL1        0.0000
   1721 TI         10.4321   23.5642    1.7520 Ti      1  UNL1        0.0000
   1722 TI         12.2469   12.5125   11.3595 Ti      1  UNL1        0.0000
   1723 TI          7.1175   14.7928    9.3660 Ti      1  UNL1        0.0000
   1724 TI         14.8034   19.9910    3.7033 Ti      1  UNL1        0.0000
   1725 H          12.7344   16.0295    8.5834 H       1  UNL1        0.0000
   1726 H           1.9626   24.5196    6.4782 H       1  UNL1        0.0000
   1727 H          13.4190   25.3875    4.6503 H       1  UNL1        0.0000
   1728 H           6.4838   20.4048   11.0484 H       1  UNL1        0.0000
   1729 H          17.7362   15.8842    2.1552 H       1  UNL1        0.0000
   1730 H           2.1859   15.5988   10.9036 H       1  UNL1        0.0000
   1731 H          20.1016   21.8807    2.0291 H      24  UNL24       0.0000
   1732 H          13.3602    8.5149   10.9625 H       1  UNL1        0.0000
   1733 H           6.3984   22.8330    2.0957 H      18  UNL18       0.0000
   1734 H          13.6444   17.5810    6.8269 H       1  UNL1        0.0000
   1735 H           8.9422   18.0472    8.4060 H       1  UNL1        0.0000
   1736 H          21.4283   12.5486    6.3785 H       1  UNL1        0.0000
   1737 H           6.6602   14.7087   12.9842 H       1  UNL1        0.0000
   1738 H          14.9147   19.4543    0.1546 H       1  UNL1        0.0000
   1739 H          12.7489   11.8702    5.8447 H       1  UNL1        0.0000
   1740 H           9.7330   23.6910    7.2795 H       1  UNL1        0.0000
   1741 H           2.9275   18.0380    9.0374 H       1  UNL1        0.0000
   1742 H          19.6286   17.7702    4.1322 H       1  UNL1        0.0000
   1743 H           5.2589   16.6756    5.6889 H       1  UNL1        0.0000
   1744 H           7.2835   25.2802    4.1249 H       1  UNL1        0.0000
   1745 H          10.7209   26.6778    2.6096 H       1  UNL1        0.0000
   1746 H          17.6555   13.8596    3.3557 H       1  UNL1        0.0000
   1747 H          13.5941   21.6742    2.2978 H       1  UNL1        0.0000
   1748 H           9.2029   14.5114   10.7192 H       1  UNL1        0.0000
   1749 H          16.4026   14.5956    9.7284 H       1  UNL1        0.0000
   1750 H          14.9429   14.0743   10.4833 H       1  UNL1        0.0000
   1751 H          16.8159   19.0478    8.6325 H       1  UNL1        0.0000
   1752 H          16.2250   19.3883    7.0176 H       1  UNL1        0.0000
   1753 H          16.0855    9.6270    9.5342 H       1  UNL1        0.0000
   1754 H          14.7714   10.6818   10.0002 H       1  UNL1        0.0000
   1755 H          10.3989   16.2884    9.3560 H       1  UNL1        0.0000
   1756 H           9.8512   19.6038    6.6485 H       1  UNL1        0.0000
   1757 H          14.7284   23.4462    3.8453 H       1  UNL1        0.0000
   1758 H          16.9865   22.9868    4.7446 H       1  UNL1        0.0000
   1759 C          17.4097   19.0360    4.7037 C.3     1  UNL1        0.0000
   1760 C           5.1341   16.7235    8.4239 C.3     1  UNL1        0.0000
   1761 C          12.9490   11.7842    8.4766 C.3     1  UNL1        0.0000
   1762 C           9.5010   23.8202    4.6213 C.3     1  UNL1        0.0000
   1763 C          18.3317   18.4620    5.6930 C.ar    1  UNL1        0.0000
   1764 C           4.1756   17.3169    7.4529 C.ar    1  UNL1        0.0000
   1765 C          13.9047   11.2041    7.5233 C.ar    1  UNL1        0.0000
   1766 C           8.5948   24.4344    5.6269 C.ar    1  UNL1        0.0000
   1767 C          18.0884   18.5266    7.1009 C.ar    1  UNL1        0.0000
   1768 C           4.3882   17.2062    6.0635 C.ar    1  UNL1        0.0000
   1769 C          15.0624   10.4830    7.9691 C.ar    1  UNL1        0.0000
   1770 C           7.4713   25.1693    5.1891 C.ar    1  UNL1        0.0000
   1771 C           8.8626   24.2710    6.9801 C.ar    1  UNL1        0.0000
   1772 C          13.6448   11.3292    6.1410 C.ar    1  UNL1        0.0000
   1773 C          19.4864   17.8035    5.2100 C.ar    1  UNL1        0.0000
   1774 C           3.0548   17.9700    7.9586 C.ar    1  UNL1        0.0000
   1775 C          11.8011   18.6842    6.6396 C.ar    1  UNL1        0.0000
   1776 C          10.7895   16.9569    8.5908 C.ar    1  UNL1        0.0000
   1777 C          15.1488   24.1031    4.6051 C.ar    1  UNL1        0.0000
   1778 C           7.2574   11.4321    6.5282 C.ar    1  UNL1        0.0000
   1779 C          17.7025   15.9651    0.0113 C.3     1  UNL1        0.0000
   1780 C          10.8265   27.5243    0.0887 C.2     1  UNL1        0.0000
   1781 C          15.6715   14.5722   12.9898 C.ar    1  UNL1        0.0000
   1782 C           2.2677   15.6486   13.0467 C.ar    1  UNL1        0.0000
   1783 C          12.3379   19.6013    5.6056 C.3     1  UNL1        0.0000
   1784 C           7.8425   12.3434    7.5402 C.3     1  UNL1        0.0000
   1785 C          13.2034   10.1752   13.1012 C.3     1  UNL1        0.0000
   1786 C          10.7835   26.0884    0.0497 C.2     1  UNL1        0.0000
   1787 C          14.3962   13.9105   13.0430 C.3     1  UNL1        0.0000
   1788 C           3.6549   16.1115   13.0640 C.3     1  UNL1        0.0000
   1789 C          10.4703   18.8194    7.0787 C.ar    1  UNL1        0.0000
   1790 C          12.1126   16.8136    8.1546 C.ar    1  UNL1        0.0000
   1791 C          14.4114   25.2044    5.0587 C.ar    1  UNL1        0.0000
   1792 C           0.9686   24.6964    6.0734 C.ar    1  UNL1        0.0000
   1793 C          17.7720   15.2963    1.2398 C.2     1  UNL1        0.0000
   1794 C           6.4793   20.9921   11.9630 C.ar    1  UNL1        0.0000
   1795 C           4.6269   22.1073    1.1102 C.2    18  UNL18       0.0000
   1796 C           1.6361   15.3988   11.8218 C.ar    1  UNL1        0.0000
   1797 C          16.4287   23.8465    5.1127 C.ar    1  UNL1        0.0000
   1798 C          21.9786   11.6822    6.0174 C.ar    1  UNL1        0.0000
   1799 C          12.6200   17.6748    7.1812 C.ar    1  UNL1        0.0000
   1800 C           9.9680   17.9555    8.0529 C.ar    1  UNL1        0.0000
   1801 C          16.3492   14.8664   11.7534 C.ar    1  UNL1        0.0000
   1802 C           5.8983   22.6318    1.1525 C.2    18  UNL18       0.0000
   1803 C          13.4254    7.9883   11.9106 C.ar    1  UNL1        0.0000
   1804 C          17.8429   13.8972    1.3189 C.2     1  UNL1        0.0000
   1805 N          17.9257   13.2992    2.5559 N.pl3   1  UNL1        0.0000
   1806 N          15.7699   14.6650   10.5174 N.pl3   1  UNL1        0.0000
   1807 N          16.9886   19.1342    7.6391 N.pl3   1  UNL1        0.0000
   1808 N          15.4061   10.3348    9.2844 N.pl3   1  UNL1        0.0000
   1809 O          16.2220   19.3994    5.0765 O.3     1  UNL1        0.0000
   1810 O           5.9335   15.8005    8.0200 O.3     1  UNL1        0.0000
   1811 O          13.3327   11.9204    9.6957 O.3     1  UNL1        0.0000
   1812 O           9.4135   24.2487    3.4226 O.3     1  UNL1        0.0000
   1813 O          10.3064   22.8899    5.0021 O.3     1  UNL1        0.0000
   1814 O          11.7642   12.1121    8.0781 O.3     1  UNL1        0.0000
   1815 O          17.8117   19.1325    3.4898 O.3     1  UNL1        0.0000
   1816 O           5.0837   17.1566    9.6244 O.3     1  UNL1        0.0000
   1817 O          15.1441   18.7859    2.5052 O.3     1  UNL1        0.0000
   1818 O           7.6195   16.3706   10.1096 O.3     1  UNL1        0.0000
   1819 O          16.0052   21.1040    2.9532 O.3     1  UNL1        0.0000
   1820 O           5.9312   14.5853   10.6096 O.3     1  UNL1        0.0000
   1821 O          10.6471   11.5396   10.6743 O.3     1  UNL1        0.0000
   1822 O          11.9569   23.4987    2.9093 O.3     1  UNL1        0.0000
   1823 O          11.5191   13.8335   10.2080 O.3     1  UNL1        0.0000
   1824 O          10.3099   21.6838    2.3989 O.3     1  UNL1        0.0000
   1825 O          13.5625   19.4645    5.2443 O.3     1  UNL1        0.0000
   1826 O           7.1513   13.3543    7.9235 O.3     1  UNL1        0.0000
   1827 O          13.0538   10.7669   11.9620 O.3     1  UNL1        0.0000
   1828 O          10.7310   25.3832    1.1444 O.2     1  UNL1        0.0000
   1829 O          13.7584   13.5813   11.9563 O.3     1  UNL1        0.0000
   1830 O           8.5600   23.4708    1.0941 O.3     1  UNL1        0.0000
   1831 O           9.0164   12.0889    7.9912 O.3     1  UNL1        0.0000
   1832 O          11.5617   20.4964    5.1176 O.3     1  UNL1        0.0000
   1833 O          18.1866   20.8295    1.0833 O.3     1  UNL1        0.0000
   1834 O           4.2393   16.3658   11.9440 O.3     1  UNL1        0.0000
   1835 O          17.4876   18.0491    1.1133 O.3     1  UNL1        0.0000
   1836 O           6.4445   18.2259   12.0151 O.3     1  UNL1        0.0000
   1837 O          13.2566   21.1124    3.0197 O.3     1  UNL1        0.0000
   1838 O           8.8404   13.9407   10.0169 O.3     1  UNL1        0.0000
   1839 O          15.7354   19.9769    0.0716 O.3     1  UNL1        0.0000
   1840 O           6.7492   15.6791   13.0448 O.3     1  UNL1        0.0000
   1841 H           9.1196   19.7623   12.3532 H      29  UNL29       0.0000
   1842 H          10.8398   18.4247   10.6060 H      29  UNL29       0.0000
   1843 C           9.9127   19.0481   12.5385 C.2    29  UNL29       0.0000
   1844 H          13.4103   18.1253   10.4885 H      29  UNL29       0.0000
   1845 C          10.7528   18.3872   11.6838 C.2    29  UNL29       0.0000
   1846 H          13.3344   27.2359    1.7375 H      19  UNL19       0.0000
   1847 N          14.5396   25.8709    0.7089 N.2    19  UNL19       0.0000
   1848 C          13.7764   17.5284   11.3334 C.3    29  UNL29       0.0000
   1849 H          14.2345   18.1996   12.0704 H      29  UNL29       0.0000
   1850 C          13.8727   26.3069    1.9401 C.3    19  UNL19       0.0000
   1851 N          11.5590   17.5685   12.4564 N.pl3  29  UNL29       0.0000
   1852 H          13.1627   25.5355    2.2624 H      19  UNL19       0.0000
   1853 H          14.5465   16.8419   10.9544 H      29  UNL29       0.0000
   1854 C          15.5379   24.9701    0.6399 C.2    19  UNL19       0.0000
   1855 C          12.6526   16.7070   11.9568 C.3    29  UNL29       0.0000
   1856 H          12.2179   15.9936   11.2434 H      29  UNL29       0.0000
   1857 H          14.6240   26.4778    2.7163 H      19  UNL19       0.0000
   1858 H          15.9951   24.4646    1.4820 H      19  UNL19       0.0000
   1859 H          13.0076   16.1290   12.8174 H      29  UNL29       0.0000
   1860 TI          1.8066    9.2531   24.3754 Ti      1  UNL1        0.0000
   1861 TI         12.4776   12.5209   14.9547 Ti      1  UNL1        0.0000
   1862 TI          6.0275    5.4641   22.5273 Ti      1  UNL1        0.0000
   1863 TI          7.1866   14.6802   16.7587 Ti      1  UNL1        0.0000
   1864 TI          6.1195   16.3250   14.8622 Ti      1  UNL1        0.0000
   1865 TI          7.9344    5.2733   24.4698 Ti      1  UNL1        0.0000
   1866 TI          2.8050    7.5536   22.4763 Ti      1  UNL1        0.0000
   1867 TI         10.4908   12.7518   16.8136 Ti      1  UNL1        0.0000
   1868 H           8.4218    8.7903   21.6937 H       1  UNL1        0.0000
   1869 H          -2.3499   17.2804   19.5885 H       1  UNL1        0.0000
   1870 H           9.1064   18.1483   17.7606 H       1  UNL1        0.0000
   1871 H           2.1712   13.1656   24.1586 H       1  UNL1        0.0000
   1872 H          13.4237    8.6450   15.2654 H       1  UNL1        0.0000
   1873 H          -2.1267    8.3596   24.0139 H       1  UNL1        0.0000
   1874 H          15.7890   14.6415   15.1394 H       1  UNL1        0.0000
   1875 H           9.0476    1.2757   24.0728 H       1  UNL1        0.0000
   1876 H           2.0859   15.5938   15.2060 H       1  UNL1        0.0000
   1877 H           9.3318   10.3418   19.9372 H       1  UNL1        0.0000
   1878 H           4.6296   10.8080   21.5163 H       1  UNL1        0.0000
   1879 H          17.1158    5.3094   19.4887 H       1  UNL1        0.0000
   1880 H           2.3477    7.4695   26.0944 H       1  UNL1        0.0000
   1881 H          10.6022   12.2151   13.2649 H       1  UNL1        0.0000
   1882 H           8.4363    4.6310   18.9550 H       1  UNL1        0.0000
   1883 H           5.4205   16.4518   20.3897 H       1  UNL1        0.0000
   1884 H          -1.3850   10.7988   22.1477 H       1  UNL1        0.0000
   1885 H          15.3161   10.5310   17.2425 H       1  UNL1        0.0000
   1886 H           0.9464    9.4364   18.7991 H       1  UNL1        0.0000
   1887 H           2.9709   18.0410   17.2352 H       1  UNL1        0.0000
   1888 H           6.4083   19.4386   15.7198 H       1  UNL1        0.0000
   1889 H          13.3429    6.6204   16.4660 H       1  UNL1        0.0000
   1890 H           9.2815   14.4350   15.4080 H       1  UNL1        0.0000
   1891 H           4.8904    7.2722   23.8294 H       1  UNL1        0.0000
   1892 H          12.0901    7.3564   22.8387 H       1  UNL1        0.0000
   1893 H          10.6304    6.8351   23.5936 H       1  UNL1        0.0000
   1894 H          12.5034   11.8086   21.7428 H       1  UNL1        0.0000
   1895 H          11.9125   12.1491   20.1279 H       1  UNL1        0.0000
   1896 H          11.7730    2.3878   22.6444 H       1  UNL1        0.0000
   1897 H          10.4589    3.4426   23.1105 H       1  UNL1        0.0000
   1898 H           6.0864    9.0492   22.4663 H       1  UNL1        0.0000
   1899 H           5.5387   12.3646   19.7588 H       1  UNL1        0.0000
   1900 H          10.4158   16.2070   16.9556 H       1  UNL1        0.0000
   1901 H          12.6739   15.7476   17.8549 H       1  UNL1        0.0000
   1902 C          13.0971   11.7968   17.8139 C.3     1  UNL1        0.0000
   1903 C           0.8216    9.4843   21.5341 C.3     1  UNL1        0.0000
   1904 C           8.6364    4.5450   21.5868 C.3     1  UNL1        0.0000
   1905 C           5.1884   16.5810   17.7315 C.3     1  UNL1        0.0000
   1906 C          14.0192   11.2228   18.8033 C.ar    1  UNL1        0.0000
   1907 C          -0.1370   10.0777   20.5632 C.ar    1  UNL1        0.0000
   1908 C           9.5921    3.9649   20.6336 C.ar    1  UNL1        0.0000
   1909 C           4.2822   17.1952   18.7372 C.ar    1  UNL1        0.0000
   1910 C          13.7758   11.2874   20.2112 C.ar    1  UNL1        0.0000
   1911 C           0.0757    9.9670   19.1738 C.ar    1  UNL1        0.0000
   1912 C          10.7499    3.2438   21.0793 C.ar    1  UNL1        0.0000
   1913 C           3.1588   17.9301   18.2994 C.ar    1  UNL1        0.0000
   1914 C           4.5501   17.0318   20.0904 C.ar    1  UNL1        0.0000
   1915 C           9.3322    4.0900   19.2512 C.ar    1  UNL1        0.0000
   1916 C          15.1738   10.5643   18.3203 C.ar    1  UNL1        0.0000
   1917 C          -1.2577   10.7308   21.0689 C.ar    1  UNL1        0.0000
   1918 C           7.4885   11.4450   19.7498 C.ar    1  UNL1        0.0000
   1919 C           6.4770    9.7177   21.7011 C.ar    1  UNL1        0.0000
   1920 C          10.8363   16.8639   17.7154 C.ar    1  UNL1        0.0000
   1921 C           2.9449    4.1929   19.6385 C.ar    1  UNL1        0.0000
   1922 C          13.3900    8.7259   13.1216 C.ar    1  UNL1        0.0000
   1923 C           6.5139   20.2851   13.1989 C.ar    1  UNL1        0.0000
   1924 C          11.3590    7.3330   26.1001 C.ar    1  UNL1        0.0000
   1925 C          -2.0448    8.4094   26.1570 C.ar    1  UNL1        0.0000
   1926 C           8.0254   12.3621   18.7159 C.3     1  UNL1        0.0000
   1927 C           3.5299    5.1042   20.6505 C.3     1  UNL1        0.0000
   1928 C           8.8909    2.9360   26.2114 C.3     1  UNL1        0.0000
   1929 C           6.4709   18.8492   13.1600 C.3     1  UNL1        0.0000
   1930 C          10.0837    6.6713   26.1533 C.3     1  UNL1        0.0000
   1931 C          -0.6577    8.8723   26.1743 C.3     1  UNL1        0.0000
   1932 C           6.1577   11.5802   20.1890 C.ar    1  UNL1        0.0000
   1933 C           7.8001    9.5744   21.2649 C.ar    1  UNL1        0.0000
   1934 C          10.0989   17.9652   18.1689 C.ar    1  UNL1        0.0000
   1935 C          -3.3439   17.4572   19.1837 C.ar    1  UNL1        0.0000
   1936 C          13.4595    8.0571   14.3501 C.ar    1  UNL1        0.0000
   1937 C           2.1668   13.7529   25.0733 C.ar    1  UNL1        0.0000
   1938 C           0.3144   14.8681   14.2205 C.ar    1  UNL1        0.0000
   1939 C          -2.6764    8.1596   24.9321 C.ar    1  UNL1        0.0000
   1940 C          12.1162   16.6073   18.2230 C.ar    1  UNL1        0.0000
   1941 C          17.6660    4.4430   19.1277 C.ar    1  UNL1        0.0000
   1942 C           8.3075   10.4356   20.2915 C.ar    1  UNL1        0.0000
   1943 C           5.6555   10.7163   21.1632 C.ar    1  UNL1        0.0000
   1944 C          12.0366    7.6272   24.8637 C.ar    1  UNL1        0.0000
   1945 C           1.5857   15.3926   14.2627 C.ar    1  UNL1        0.0000
   1946 C           9.1129    0.7491   25.0209 C.ar    1  UNL1        0.0000
   1947 C          13.5304    6.6580   14.4292 C.ar    1  UNL1        0.0000
   1948 N          13.6132    6.0599   15.6662 N.pl3   1  UNL1        0.0000
   1949 N          11.4574    7.4258   23.6277 N.pl3   1  UNL1        0.0000
   1950 N          12.6761   11.8950   20.7494 N.pl3   1  UNL1        0.0000
   1951 N          11.0936    3.0956   22.3946 N.pl3   1  UNL1        0.0000
   1952 O          11.9095   12.1602   18.1868 O.3     1  UNL1        0.0000
   1953 O           1.6210    8.5613   21.1303 O.3     1  UNL1        0.0000
   1954 O           9.0202    4.6812   22.8060 O.3     1  UNL1        0.0000
   1955 O           5.1009   17.0095   16.5329 O.3     1  UNL1        0.0000
   1956 O           5.9939   15.6507   18.1124 O.3     1  UNL1        0.0000
   1957 O           7.4517    4.8729   21.1883 O.3     1  UNL1        0.0000
   1958 O          13.4992   11.8933   16.6000 O.3     1  UNL1        0.0000
   1959 O           0.7711    9.9174   22.7347 O.3     1  UNL1        0.0000
   1960 O          10.8316   11.5467   15.6155 O.3     1  UNL1        0.0000
   1961 O           3.3070    9.1313   23.2199 O.3     1  UNL1        0.0000
   1962 O          11.6927   13.8648   16.0635 O.3     1  UNL1        0.0000
   1963 O           1.6187    7.3461   23.7199 O.3     1  UNL1        0.0000
   1964 O           6.3345    4.3004   23.7846 O.3     1  UNL1        0.0000
   1965 O           7.6443   16.2595   16.0195 O.3     1  UNL1        0.0000
   1966 O           7.2066    6.5943   23.3183 O.3     1  UNL1        0.0000
   1967 O           5.9974   14.4446   15.5092 O.3     1  UNL1        0.0000
   1968 O           9.2500   12.2253   18.3546 O.3     1  UNL1        0.0000
   1969 O           2.8388    6.1151   21.0338 O.3     1  UNL1        0.0000
   1970 O           8.7413    3.5277   25.0723 O.3     1  UNL1        0.0000
   1971 O           6.4184   18.1440   14.2546 O.3     1  UNL1        0.0000
   1972 O           9.4459    6.3421   25.0666 O.3     1  UNL1        0.0000
   1973 O           4.2474   16.2316   14.2044 O.3     1  UNL1        0.0000
   1974 O           4.7038    4.8497   21.1014 O.3     1  UNL1        0.0000
   1975 O           7.2492   13.2572   18.2279 O.3     1  UNL1        0.0000
   1976 O          13.8741   13.5903   14.1936 O.3     1  UNL1        0.0000
   1977 O          -0.0732    9.1266   25.0543 O.3     1  UNL1        0.0000
   1978 O          13.1751   10.8099   14.2236 O.3     1  UNL1        0.0000
   1979 O           2.1320   10.9867   25.1254 O.3     1  UNL1        0.0000
   1980 O           8.9441   13.8732   16.1299 O.3     1  UNL1        0.0000
   1981 O           4.5279    6.7015   23.1272 O.3     1  UNL1        0.0000
   1982 O          11.4229   12.7377   13.1819 O.3     1  UNL1        0.0000
   1983 O           2.4366    8.4399   26.1551 O.3     1  UNL1        0.0000
   1984 H           4.8071   12.5231   25.4635 H      30  UNL30       0.0000
   1985 H           6.5273   11.1855   23.7162 H      30  UNL30       0.0000
   1986 C           5.6001   11.8089   25.6488 C.2    30  UNL30       0.0000
   1987 H           9.0978   10.8861   23.5988 H      30  UNL30       0.0000
   1988 C           6.4403   11.1480   24.7940 C.2    30  UNL30       0.0000
   1989 H           9.0218   19.9967   14.8478 H      29  UNL29       0.0000
   1990 N          10.2271   18.6317   13.8192 N.pl3  29  UNL29       0.0000
   1991 C           9.4638   10.2892   24.4437 C.3    30  UNL30       0.0000
   1992 H           9.9220   10.9604   25.1807 H      30  UNL30       0.0000
   1993 C           9.5601   19.0677   15.0504 C.3    29  UNL29       0.0000
   1994 N           7.2464   10.3293   25.5666 N.pl3  30  UNL30       0.0000
   1995 H           8.8502   18.2963   15.3727 H      29  UNL29       0.0000
   1996 H          10.2340    9.6027   24.0647 H      30  UNL30       0.0000
   1997 C          11.2253   17.7309   13.7501 C.3    29  UNL29       0.0000
   1998 C           8.3401    9.4678   25.0671 C.3    30  UNL30       0.0000
   1999 H           7.9054    8.7544   24.3536 H      30  UNL30       0.0000
   2000 H          10.3114   19.2386   15.8266 H      29  UNL29       0.0000
   2001 H          11.6826   17.2254   14.5923 H      29  UNL29       0.0000
   2002 H           8.6951    8.8898   25.9277 H      30  UNL30       0.0000
   2003 TI         -2.5060    2.0139   37.4857 Ti      1  UNL1        0.0000
   2004 TI          8.1651    5.2817   28.0650 Ti      1  UNL1        0.0000
   2005 TI          1.7150   -1.7751   35.6375 Ti      1  UNL1        0.0000
   2006 TI          2.8740    7.4410   29.8690 Ti      1  UNL1        0.0000
   2007 TI          1.8070    9.0858   27.9725 Ti      1  UNL1        0.0000
   2008 TI          3.6218   -1.9659   37.5800 Ti      1  UNL1        0.0000
   2009 TI         -1.5075    0.3144   35.5866 Ti      1  UNL1        0.0000
   2010 TI          6.1783    5.5126   29.9238 Ti      1  UNL1        0.0000
   2011 H           4.1093    1.5511   34.8039 H       1  UNL1        0.0000
   2012 H          -6.6624   10.0412   32.6988 H       1  UNL1        0.0000
   2013 H           4.7939   10.9091   30.8709 H       1  UNL1        0.0000
   2014 H          -2.1413    5.9264   37.2689 H      20  UNL20       0.0000
   2015 H           9.1111    1.4058   28.3757 H       1  UNL1        0.0000
   2016 H          -6.4392    1.1204   37.1242 H       1  UNL1        0.0000
   2017 H          11.4765    7.4023   28.2496 H       1  UNL1        0.0000
   2018 H           4.7351   -5.9635   37.1831 H      16  UNL16       0.0000
   2019 H          -2.2267    8.3546   28.3163 H       1  UNL1        0.0000
   2020 H           5.0193    3.1026   33.0474 H       1  UNL1        0.0000
   2021 H           0.3171    3.5688   34.6266 H       1  UNL1        0.0000
   2022 H          12.8033   -1.9298   32.5990 H       1  UNL1        0.0000
   2023 H          -1.9649    0.2303   39.2047 H       1  UNL1        0.0000
   2024 H           6.2897    4.9759   26.3751 H       1  UNL1        0.0000
   2025 H           4.1238   -2.6082   32.0653 H       1  UNL1        0.0000
   2026 H           1.1080    9.2126   33.5000 H       1  UNL1        0.0000
   2027 H          -5.6975    3.5596   35.2580 H       1  UNL1        0.0000
   2028 H          11.0036    3.2918   30.3527 H       1  UNL1        0.0000
   2029 H          -3.3661    2.1972   31.9094 H       1  UNL1        0.0000
   2030 H          -1.3416   10.8018   30.3455 H       1  UNL1        0.0000
   2031 H           2.0958   12.1994   28.8301 H       1  UNL1        0.0000
   2032 H           9.0304   -0.6188   29.5763 H       1  UNL1        0.0000
   2033 H           4.9690    7.1958   28.5183 H       1  UNL1        0.0000
   2034 H           0.5779    0.0330   36.9397 H       1  UNL1        0.0000
   2035 H           7.7776    0.1172   35.9489 H       1  UNL1        0.0000
   2036 H           6.3179   -0.4041   36.7038 H       1  UNL1        0.0000
   2037 H           8.1909    4.5694   34.8530 H       1  UNL1        0.0000
   2038 H           7.6000    4.9099   33.2382 H       1  UNL1        0.0000
   2039 H           7.4605   -4.8514   35.7547 H       1  UNL1        0.0000
   2040 H           6.1464   -3.7966   36.2207 H       1  UNL1        0.0000
   2041 H           1.7738    1.8100   35.5766 H       1  UNL1        0.0000
   2042 H           1.2262    5.1254   32.8691 H       1  UNL1        0.0000
   2043 H           6.1033    8.9678   30.0659 H       1  UNL1        0.0000
   2044 H           8.3614    8.5084   30.9651 H       1  UNL1        0.0000
   2045 C           8.7846    4.5576   30.9242 C.3     1  UNL1        0.0000
   2046 C          -3.4909    2.2451   34.6444 C.3     1  UNL1        0.0000
   2047 C           4.3239   -2.6942   34.6971 C.3     1  UNL1        0.0000
   2048 C           0.8759    9.3418   30.8418 C.3     1  UNL1        0.0000
   2049 C           9.7067    3.9836   31.9136 C.ar    1  UNL1        0.0000
   2050 C          -4.4495    2.8385   33.6734 C.ar    1  UNL1        0.0000
   2051 C           5.2796   -3.2743   33.7439 C.ar    1  UNL1        0.0000
   2052 C          -0.0303    9.9560   31.8474 C.ar    1  UNL1        0.0000
   2053 C           9.4633    4.0482   33.3215 C.ar    1  UNL1        0.0000
   2054 C          -4.2368    2.7278   32.2841 C.ar    1  UNL1        0.0000
   2055 C           6.4374   -3.9954   34.1896 C.ar    1  UNL1        0.0000
   2056 C          -1.1537   10.6909   31.4097 C.ar    1  UNL1        0.0000
   2057 C           0.2376    9.7926   33.2006 C.ar    1  UNL1        0.0000
   2058 C           5.0197   -3.1492   32.3615 C.ar    1  UNL1        0.0000
   2059 C          10.8613    3.3251   31.4306 C.ar    1  UNL1        0.0000
   2060 C          -5.5703    3.4916   34.1792 C.ar    1  UNL1        0.0000
   2061 C           3.1760    4.2058   32.8601 C.ar    1  UNL1        0.0000
   2062 C           2.1644    2.4785   34.8114 C.ar    1  UNL1        0.0000
   2063 C           6.5237    9.6247   30.8257 C.ar    1  UNL1        0.0000
   2064 C          -1.3677   -3.0463   32.7488 C.ar    1  UNL1        0.0000
   2065 C           9.0774    1.4867   26.2319 C.ar    1  UNL1        0.0000
   2066 C           2.2014   13.0459   26.3092 C.ar    1  UNL1        0.0000
   2067 C           7.0465    0.0938   39.2104 C.2     1  UNL1        0.0000
   2068 C          -6.3574    1.1702   39.2673 C.2     1  UNL1        0.0000
   2069 C           3.7128    5.1229   31.8261 C.3     1  UNL1        0.0000
   2070 C          -0.7826   -2.1350   33.7608 C.3     1  UNL1        0.0000
   2071 C           4.5784   -4.3032   39.3217 C.3     1  UNL1        0.0000
   2072 C           2.1584   11.6100   26.2702 C.3     1  UNL1        0.0000
   2073 C           5.7712   -0.5679   39.2636 C.2     1  UNL1        0.0000
   2074 C          -4.9702    1.6331   39.2845 C.2     1  UNL1        0.0000
   2075 C           1.8452    4.3410   33.2993 C.ar    1  UNL1        0.0000
   2076 C           3.4876    2.3352   34.3751 C.ar    1  UNL1        0.0000
   2077 C           5.7864   10.7260   31.2792 C.ar    1  UNL1        0.0000
   2078 C          -7.6564   10.2180   32.2939 C.ar    1  UNL1        0.0000
   2079 C           9.1469    0.8179   27.4604 C.ar    1  UNL1        0.0000
   2080 C          -2.1457    6.5137   38.1835 C.2    20  UNL20       0.0000
   2081 C          -3.9982    7.6289   27.3308 C.ar    1  UNL1        0.0000
   2082 C          -6.9890    0.9204   38.0424 C.2     1  UNL1        0.0000
   2083 C           7.8036    9.3680   31.3332 C.ar    1  UNL1        0.0000
   2084 C          13.3535   -2.7962   32.2379 C.ar    1  UNL1        0.0000
   2085 C           3.9950    3.1964   33.4017 C.ar    1  UNL1        0.0000
   2086 C           1.3430    3.4771   34.2734 C.ar    1  UNL1        0.0000
   2087 C           7.7241    0.3880   37.9739 C.2     1  UNL1        0.0000
   2088 C          -2.7268    8.1534   27.3730 C.ar    1  UNL1        0.0000
   2089 C           4.8004   -6.4901   38.1312 C.2    16  UNL16       0.0000
   2090 C           9.2178   -0.5812   27.5394 C.ar    1  UNL1        0.0000
   2091 N           9.3006   -1.1793   28.7764 N.pl3   1  UNL1        0.0000
   2092 N           7.1449    0.1866   36.7380 N.pl3   1  UNL1        0.0000
   2093 N           8.3636    4.6557   33.8596 N.pl3   1  UNL1        0.0000
   2094 N           6.7810   -4.1436   35.5049 N.pl3   1  UNL1        0.0000
   2095 O           7.5969    4.9210   31.2971 O.3     1  UNL1        0.0000
   2096 O          -2.6916    1.3221   34.2406 O.3     1  UNL1        0.0000
   2097 O           4.7076   -2.5580   35.9163 O.3     1  UNL1        0.0000
   2098 O           0.7884    9.7703   29.6432 O.3     1  UNL1        0.0000
   2099 O           1.6814    8.4115   31.2227 O.3     1  UNL1        0.0000
   2100 O           3.1391   -2.3663   34.2986 O.3     1  UNL1        0.0000
   2101 O           9.1866    4.6541   29.7103 O.3     1  UNL1        0.0000
   2102 O          -3.5414    2.6782   35.8450 O.3     1  UNL1        0.0000
   2103 O           6.5191    4.3075   28.7258 O.3     1  UNL1        0.0000
   2104 O          -1.0055    1.8921   36.3302 O.3     1  UNL1        0.0000
   2105 O           7.3802    6.6256   29.1737 O.3     1  UNL1        0.0000
   2106 O          -2.6938    0.1069   36.8302 O.3     1  UNL1        0.0000
   2107 O           2.0220   -2.9388   36.8949 O.3     1  UNL1        0.0000
   2108 O           3.3318    9.0203   29.1298 O.3     1  UNL1        0.0000
   2109 O           2.8940   -0.6449   36.4286 O.3     1  UNL1        0.0000
   2110 O           1.6849    7.2054   28.6194 O.3     1  UNL1        0.0000
   2111 O           4.9375    4.9861   31.4649 O.3     1  UNL1        0.0000
   2112 O          -1.4738   -1.1241   34.1441 O.3     1  UNL1        0.0000
   2113 O           4.4288   -3.7115   38.1826 O.3     1  UNL1        0.0000
   2114 O           2.1059   10.9048   27.3649 O.3     1  UNL1        0.0000
   2115 O           5.1333   -0.8971   38.1769 O.2     1  UNL1        0.0000
   2116 O          -0.0651    8.9924   27.3147 O.3     1  UNL1        0.0000
   2117 O           0.3913   -2.3895   34.2117 O.3     1  UNL1        0.0000
   2118 O           2.9367    6.0180   31.3382 O.3     1  UNL1        0.0000
   2119 O           9.5616    6.3511   27.3039 O.3     1  UNL1        0.0000
   2120 O          -4.3858    1.8874   38.1645 O.2     1  UNL1        0.0000
   2121 O           8.8625    3.5707   27.3338 O.3     1  UNL1        0.0000
   2122 O          -2.1805    3.7475   38.2357 O.3     1  UNL1        0.0000
   2123 O           4.6315    6.6340   29.2402 O.3     1  UNL1        0.0000
   2124 O           0.2154   -0.5377   36.2375 O.3     1  UNL1        0.0000
   2125 O           7.1103    5.4985   26.2921 O.3     1  UNL1        0.0000
   2126 O          -1.8759    1.2007   39.2653 O.3     1  UNL1        0.0000
   2127 H           0.4945    5.2839   38.5738 H      31  UNL31       0.0000
   2128 H           2.2148    3.9463   36.8265 H      31  UNL31       0.0000
   2129 C           1.2876    4.5697   38.7591 C.2    31  UNL31       0.0000
   2130 H           4.7852    3.6469   36.7090 H      31  UNL31       0.0000
   2131 C           2.1277    3.9088   37.9043 C.2    31  UNL31       0.0000
   2132 H           4.7093   12.7574   27.9581 H      30  UNL30       0.0000
   2133 N           5.9145   11.3925   26.9294 N.pl3  30  UNL30       0.0000
   2134 C           5.1513    3.0500   37.5540 C.3    31  UNL31       0.0000
   2135 H           5.6095    3.7212   38.2909 H      31  UNL31       0.0000
   2136 C           5.2476   11.8285   28.1606 C.3    30  UNL30       0.0000
   2137 N           2.9339    3.0901   38.6769 N.pl3  31  UNL31       0.0000
   2138 H           4.5377   11.0571   28.4830 H      30  UNL30       0.0000
   2139 H           5.9215    2.3635   37.1749 H      31  UNL31       0.0000
   2140 C           6.9128   10.4917   26.8604 C.3    30  UNL30       0.0000
   2141 C           4.0276    2.2286   38.1774 C.3    31  UNL31       0.0000
   2142 H           3.5928    1.5152   37.4639 H      31  UNL31       0.0000
   2143 H           5.9989   11.9994   28.9369 H      30  UNL30       0.0000
   2144 H           7.3700    9.9862   27.7026 H      30  UNL30       0.0000
   2145 H           4.3826    1.6506   39.0380 H      31  UNL31       0.0000
   2146 TI         -0.9028   30.8691   11.2652 Ti      1  UNL1        0.0000
   2147 TI          9.7682   34.1369    1.8444 Ti      1  UNL1        0.0000
   2148 TI          3.3181   27.0801    9.4170 Ti      1  UNL1        0.0000
   2149 TI          4.4772   36.2962    3.6484 Ti      1  UNL1        0.0000
   2150 TI          3.4101   37.9411    1.7520 Ti      1  UNL1        0.0000
   2151 TI          5.2250   26.8893   11.3595 Ti      1  UNL1        0.0000
   2152 TI          0.0956   29.1696    9.3660 Ti      1  UNL1        0.0000
   2153 TI          7.7814   34.3678    3.7033 Ti      1  UNL1        0.0000
   2154 H           5.7124   30.4063    8.5834 H       1  UNL1        0.0000
   2155 H          -5.0593   38.8964    6.4782 H      10  UNL10       0.0000
   2156 H           6.3970   39.7643    4.6503 H      32  UNL32       0.0000
   2157 H          -0.5382   34.7816   11.0484 H       1  UNL1        0.0000
   2158 H          10.7143   30.2610    2.1552 H       1  UNL1        0.0000
   2159 H          -4.8361   29.9756   10.9036 H       1  UNL1        0.0000
   2160 H          13.0796   36.2575    2.0291 H      24  UNL24       0.0000
   2161 H           6.3382   22.8917   10.9625 H       1  UNL1        0.0000
   2162 H          -0.6235   37.2098    2.0957 H      21  UNL21       0.0000
   2163 H           6.6224   31.9578    6.8269 H       1  UNL1        0.0000
   2164 H           1.9202   32.4240    8.4060 H       1  UNL1        0.0000
   2165 H          14.4064   26.9254    6.3785 H       1  UNL1        0.0000
   2166 H          -0.3617   29.0855   12.9842 H       1  UNL1        0.0000
   2167 H           7.8928   33.8311    0.1546 H       1  UNL1        0.0000
   2168 H           5.7269   26.2470    5.8447 H       1  UNL1        0.0000
   2169 H           2.7111   38.0678    7.2795 H       1  UNL1        0.0000
   2170 H          -4.0944   32.4148    9.0374 H       1  UNL1        0.0000
   2171 H          12.6067   32.1470    4.1322 H       1  UNL1        0.0000
   2172 H          -1.7630   31.0524    5.6889 H       1  UNL1        0.0000
   2173 H           0.2615   39.6570    4.1249 H       1  UNL1        0.0000
   2174 H           3.6989   41.0546    2.6096 H      33  UNL33       0.0000
   2175 H          10.6335   28.2364    3.3557 H       1  UNL1        0.0000
   2176 H           6.5721   36.0510    2.2978 H       1  UNL1        0.0000
   2177 H           2.1810   28.8882   10.7192 H       1  UNL1        0.0000
   2178 H           9.3807   28.9724    9.7284 H       1  UNL1        0.0000
   2179 H           7.9210   28.4512   10.4833 H       1  UNL1        0.0000
   2180 H           9.7940   33.4246    8.6325 H       1  UNL1        0.0000
   2181 H           9.2031   33.7651    7.0176 H       1  UNL1        0.0000
   2182 H           9.0636   24.0038    9.5342 H       1  UNL1        0.0000
   2183 H           7.7495   25.0586   10.0002 H       1  UNL1        0.0000
   2184 H           3.3770   30.6652    9.3560 H       1  UNL1        0.0000
   2185 H           2.8293   33.9807    6.6485 H       1  UNL1        0.0000
   2186 H           7.7064   37.8230    3.8453 H      32  UNL32       0.0000
   2187 H           9.9645   37.3636    4.7446 H      32  UNL32       0.0000
   2188 C          10.3877   33.4128    4.7037 C.3     1  UNL1        0.0000
   2189 C          -1.8878   31.1003    8.4239 C.3     1  UNL1        0.0000
   2190 C           5.9270   26.1610    8.4766 C.3     1  UNL1        0.0000
   2191 C           2.4790   38.1970    4.6213 C.3     1  UNL1        0.0000
   2192 C          11.3098   32.8389    5.6930 C.ar    1  UNL1        0.0000
   2193 C          -2.8464   31.6937    7.4529 C.ar    1  UNL1        0.0000
   2194 C           6.8827   25.5809    7.5233 C.ar    1  UNL1        0.0000
   2195 C           1.5728   38.8112    5.6269 C.2     1  UNL1        0.0000
   2196 C          11.0664   32.9034    7.1009 C.ar    1  UNL1        0.0000
   2197 C          -2.6337   31.5830    6.0635 C.ar    1  UNL1        0.0000
   2198 C           8.0405   24.8598    7.9691 C.ar    1  UNL1        0.0000
   2199 C           0.4494   39.5461    5.1891 C.3     1  UNL1        0.0000
   2200 C           1.8407   38.6478    6.9801 C.2     1  UNL1        0.0000
   2201 C           6.6228   25.7060    6.1410 C.ar    1  UNL1        0.0000
   2202 C          12.4644   32.1803    5.2100 C.ar    1  UNL1        0.0000
   2203 C          -3.9671   32.3468    7.9586 C.ar    1  UNL1        0.0000
   2204 C           4.7791   33.0610    6.6396 C.ar    1  UNL1        0.0000
   2205 C           3.7676   31.3338    8.5908 C.ar    1  UNL1        0.0000
   2206 C           8.1268   38.4799    4.6051 C.2    32  UNL32       0.0000
   2207 C           0.2354   25.8089    6.5282 C.ar    1  UNL1        0.0000
   2208 C          10.6806   30.3419    0.0113 C.3     1  UNL1        0.0000
   2209 C           3.8045   41.9011    0.0887 C.3     1  UNL1        0.0000
   2210 C           8.6496   28.9490   12.9898 C.ar    1  UNL1        0.0000
   2211 C          -4.7542   30.0254   13.0467 C.ar    1  UNL1        0.0000
   2212 C           5.3160   33.9781    5.6056 C.3     1  UNL1        0.0000
   2213 C           0.8205   26.7202    7.5402 C.3     1  UNL1        0.0000
   2214 C           6.1815   24.5520   13.1012 C.3     1  UNL1        0.0000
   2215 C           3.7615   40.4652    0.0497 C.3     1  UNL1        0.0000
   2216 C           7.3743   28.2873   13.0430 C.3     1  UNL1        0.0000
   2217 C          -3.3671   30.4883   13.0640 C.3     1  UNL1        0.0000
   2218 C           3.4483   33.1962    7.0787 C.ar    1  UNL1        0.0000
   2219 C           5.0907   31.1904    8.1546 C.ar    1  UNL1        0.0000
   2220 C           7.3895   39.5812    5.0587 C.2    32  UNL32       0.0000
   2221 C          -6.0533   39.0732    6.0734 C.2    10  UNL10       0.0000
   2222 C          10.7500   29.6731    1.2398 C.2     1  UNL1        0.0000
   2223 C          -0.5426   35.3689   11.9630 C.3     1  UNL1        0.0000
   2224 C          -2.3950   36.4842    1.1102 C.2    21  UNL21       0.0000
   2225 C          -5.3858   29.7756   11.8218 C.ar    1  UNL1        0.0000
   2226 C           9.4068   38.2233    5.1127 C.2    32  UNL32       0.0000
   2227 C          14.9566   26.0590    6.0174 C.ar    1  UNL1        0.0000
   2228 C           5.5981   32.0517    7.1812 C.ar    1  UNL1        0.0000
   2229 C           2.9461   32.3323    8.0529 C.ar    1  UNL1        0.0000
   2230 C           9.3272   29.2432   11.7534 C.ar    1  UNL1        0.0000
   2231 C          -1.1237   37.0086    1.1525 C.2    21  UNL21       0.0000
   2232 C           6.4035   22.3652   11.9106 C.ar    1  UNL1        0.0000
   2233 C          10.8210   28.2740    1.3189 C.2     1  UNL1        0.0000
   2234 N          10.9038   27.6760    2.5559 N.pl3   1  UNL1        0.0000
   2235 N           8.7480   29.0418   10.5174 N.pl3   1  UNL1        0.0000
   2236 N           9.9667   33.5110    7.6391 N.pl3   1  UNL1        0.0000
   2237 N           8.3842   24.7116    9.2844 N.pl3   1  UNL1        0.0000
   2238 O           9.2001   33.7763    5.0765 O.3     1  UNL1        0.0000
   2239 O          -1.0884   30.1773    8.0200 O.3     1  UNL1        0.0000
   2240 O           6.3108   26.2972    9.6957 O.3     1  UNL1        0.0000
   2241 O           2.3915   38.6256    3.4226 O.3     1  UNL1        0.0000
   2242 O           3.2845   37.2667    5.0021 O.3     1  UNL1        0.0000
   2243 O           4.7423   26.4890    8.0781 O.3     1  UNL1        0.0000
   2244 O          10.7897   33.5093    3.4898 O.3     1  UNL1        0.0000
   2245 O          -1.9383   31.5334    9.6244 O.3     1  UNL1        0.0000
   2246 O           8.1222   33.1627    2.5052 O.3     1  UNL1        0.0000
   2247 O           0.5976   30.7474   10.1096 O.3     1  UNL1        0.0000
   2248 O           8.9833   35.4808    2.9532 O.3     1  UNL1        0.0000
   2249 O          -1.0907   28.9621   10.6096 O.3     1  UNL1        0.0000
   2250 O           3.6251   25.9164   10.6743 O.3     1  UNL1        0.0000
   2251 O           4.9349   37.8755    2.9093 O.3     1  UNL1        0.0000
   2252 O           4.4972   28.2103   10.2080 O.3     1  UNL1        0.0000
   2253 O           3.2880   36.0607    2.3989 O.3     1  UNL1        0.0000
   2254 O           6.5406   33.8413    5.2443 O.3     1  UNL1        0.0000
   2255 O           0.1294   27.7311    7.9235 O.3     1  UNL1        0.0000
   2256 O           6.0319   25.1437   11.9620 O.3     1  UNL1        0.0000
   2257 O           3.7090   39.7600    1.1444 O.3     1  UNL1        0.0000
   2258 O           6.7365   27.9581   11.9563 O.3     1  UNL1        0.0000
   2259 O           1.5380   37.8476    1.0941 O.3     1  UNL1        0.0000
   2260 O           1.9944   26.4657    7.9912 O.3     1  UNL1        0.0000
   2261 O           4.5398   34.8732    5.1176 O.3     1  UNL1        0.0000
   2262 O          11.1647   35.2063    1.0833 O.3     1  UNL1        0.0000
   2263 O          -2.7826   30.7426   11.9440 O.3     1  UNL1        0.0000
   2264 O          10.4657   32.4259    1.1133 O.3     1  UNL1        0.0000
   2265 O          -0.5774   32.6028   12.0151 O.2     1  UNL1        0.0000
   2266 O           6.2347   35.4892    3.0197 O.3     1  UNL1        0.0000
   2267 O           1.8185   28.3175   10.0169 O.3     1  UNL1        0.0000
   2268 O           8.7135   34.3538    0.0716 O.3     1  UNL1        0.0000
   2269 O          -0.2728   30.0559   13.0448 O.3     1  UNL1        0.0000
   2270 H           2.0977   34.1391   12.3532 H      34  UNL34       0.0000
   2271 H           3.8179   32.8015   10.6060 H      34  UNL34       0.0000
   2272 C           2.8907   33.4249   12.5385 C.2    34  UNL34       0.0000
   2273 H           6.3884   32.5021   10.4885 H      34  UNL34       0.0000
   2274 C           3.7309   32.7640   11.6838 C.2    34  UNL34       0.0000
   2275 H           6.3124   41.6127    1.7375 H      22  UNL22       0.0000
   2276 N           7.5177   40.2477    0.7089 N.2    22  UNL22       0.0000
   2277 C           6.7544   31.9052   11.3334 C.3    34  UNL34       0.0000
   2278 H           7.2126   32.5764   12.0704 H      34  UNL34       0.0000
   2279 C           6.8507   40.6837    1.9401 C.3    22  UNL22       0.0000
   2280 N           4.5370   31.9453   12.4564 N.pl3  34  UNL34       0.0000
   2281 H           6.1408   39.9123    2.2624 H      22  UNL22       0.0000
   2282 H           7.5246   31.2187   10.9544 H      34  UNL34       0.0000
   2283 C           8.5159   39.3469    0.6399 C.2    22  UNL22       0.0000
   2284 C           5.6307   31.0838   11.9568 C.3    34  UNL34       0.0000
   2285 H           5.1960   30.3705   11.2434 H      34  UNL34       0.0000
   2286 H           7.6020   40.8546    2.7163 H      22  UNL22       0.0000
   2287 H           8.9732   38.8414    1.4820 H      22  UNL22       0.0000
   2288 H           5.9857   30.5058   12.8174 H      34  UNL34       0.0000
   2289 TI         -5.2154   23.6299   24.3754 Ti      1  UNL1        0.0000
   2290 TI          5.4557   26.8977   14.9547 Ti      1  UNL1        0.0000
   2291 TI         -0.9944   19.8409   22.5273 Ti      1  UNL1        0.0000
   2292 TI          0.1646   29.0570   16.7587 Ti      1  UNL1        0.0000
   2293 TI         -0.9024   30.7018   14.8622 Ti      1  UNL1        0.0000
   2294 TI          0.9124   19.6501   24.4698 Ti      1  UNL1        0.0000
   2295 TI         -4.2169   21.9304   22.4763 Ti      1  UNL1        0.0000
   2296 TI          3.4689   27.1286   16.8136 Ti      1  UNL1        0.0000
   2297 H           1.3999   23.1671   21.6937 H       1  UNL1        0.0000
   2298 H          -9.3718   31.6572   19.5885 H      14  UNL14       0.0000
   2299 H           2.0845   32.5251   17.7606 H      35  UNL35       0.0000
   2300 H          -4.8507   27.5424   24.1586 H       1  UNL1        0.0000
   2301 H           6.4017   23.0218   15.2654 H       1  UNL1        0.0000
   2302 H          -9.1486   22.7364   24.0139 H       1  UNL1        0.0000
   2303 H           8.7671   29.0183   15.1394 H       1  UNL1        0.0000
   2304 H           2.0257   15.6525   24.0728 H       1  UNL1        0.0000
   2305 H          -4.9361   29.9706   15.2060 H       1  UNL1        0.0000
   2306 H           2.3099   24.7186   19.9372 H       1  UNL1        0.0000
   2307 H          -2.3923   25.1848   21.5163 H       1  UNL1        0.0000
   2308 H          10.0939   19.6862   19.4887 H       1  UNL1        0.0000
   2309 H          -4.6743   21.8463   26.0944 H       1  UNL1        0.0000
   2310 H           3.5803   26.5919   13.2649 H       1  UNL1        0.0000
   2311 H           1.4144   19.0078   18.9550 H       1  UNL1        0.0000
   2312 H          -1.6014   30.8286   20.3897 H       1  UNL1        0.0000
   2313 H          -8.4069   25.1756   22.1477 H       1  UNL1        0.0000
   2314 H           8.2942   24.9078   17.2425 H       1  UNL1        0.0000
   2315 H          -6.0755   23.8132   18.7991 H       1  UNL1        0.0000
   2316 H          -4.0510   32.4178   17.2352 H       1  UNL1        0.0000
   2317 H          -0.6136   33.8154   15.7198 H      36  UNL36       0.0000
   2318 H           6.3210   20.9972   16.4660 H       1  UNL1        0.0000
   2319 H           2.2596   28.8118   15.4080 H       1  UNL1        0.0000
   2320 H          -2.1315   21.6490   23.8294 H       1  UNL1        0.0000
   2321 H           5.0682   21.7332   22.8387 H       1  UNL1        0.0000
   2322 H           3.6085   21.2120   23.5936 H       1  UNL1        0.0000
   2323 H           5.4814   26.1854   21.7428 H       1  UNL1        0.0000
   2324 H           4.8906   26.5259   20.1279 H       1  UNL1        0.0000
   2325 H           4.7511   16.7646   22.6444 H       1  UNL1        0.0000
   2326 H           3.4370   17.8194   23.1105 H       1  UNL1        0.0000
   2327 H          -0.9356   23.4260   22.4663 H       1  UNL1        0.0000
   2328 H          -1.4832   26.7415   19.7588 H       1  UNL1        0.0000
   2329 H           3.3939   30.5838   16.9556 H      35  UNL35       0.0000
   2330 H           5.6520   30.1244   17.8549 H      35  UNL35       0.0000
   2331 C           6.0752   26.1736   17.8139 C.3     1  UNL1        0.0000
   2332 C          -6.2003   23.8611   21.5341 C.3     1  UNL1        0.0000
   2333 C           1.6145   18.9218   21.5868 C.3     1  UNL1        0.0000
   2334 C          -1.8335   30.9578   17.7315 C.3     1  UNL1        0.0000
   2335 C           6.9973   25.5997   18.8033 C.ar    1  UNL1        0.0000
   2336 C          -7.1589   24.4545   20.5632 C.ar    1  UNL1        0.0000
   2337 C           2.5702   18.3417   20.6336 C.ar    1  UNL1        0.0000
   2338 C          -2.7397   31.5720   18.7372 C.2     1  UNL1        0.0000
   2339 C           6.7539   25.6642   20.2112 C.ar    1  UNL1        0.0000
   2340 C          -6.9462   24.3438   19.1738 C.ar    1  UNL1        0.0000
   2341 C           3.7280   17.6206   21.0793 C.ar    1  UNL1        0.0000
   2342 C          -3.8631   32.3069   18.2994 C.3     1  UNL1        0.0000
   2343 C          -2.4718   31.4086   20.0904 C.2     1  UNL1        0.0000
   2344 C           2.3103   18.4668   19.2512 C.ar    1  UNL1        0.0000
   2345 C           8.1519   24.9411   18.3203 C.ar    1  UNL1        0.0000
   2346 C          -8.2797   25.1076   21.0689 C.ar    1  UNL1        0.0000
   2347 C           0.4666   25.8218   19.7498 C.ar    1  UNL1        0.0000
   2348 C          -0.5450   24.0946   21.7011 C.ar    1  UNL1        0.0000
   2349 C           3.8143   31.2407   17.7154 C.2    35  UNL35       0.0000
   2350 C          -4.0771   18.5697   19.6385 C.ar    1  UNL1        0.0000
   2351 C           6.3680   23.1027   13.1216 C.ar    1  UNL1        0.0000
   2352 C          -0.5080   34.6619   13.1989 C.2     1  UNL1        0.0000
   2353 C           4.3371   21.7098   26.1001 C.ar    1  UNL1        0.0000
   2354 C          -9.0668   22.7862   26.1570 C.ar    1  UNL1        0.0000
   2355 C           1.0034   26.7389   18.7159 C.3     1  UNL1        0.0000
   2356 C          -3.4920   19.4810   20.6505 C.3     1  UNL1        0.0000
   2357 C           1.8689   17.3128   26.2114 C.3     1  UNL1        0.0000
   2358 C          -0.5510   33.2260   13.1600 C.2     1  UNL1        0.0000
   2359 C           3.0618   21.0481   26.1533 C.3     1  UNL1        0.0000
   2360 C          -7.6796   23.2491   26.1743 C.3     1  UNL1        0.0000
   2361 C          -0.8642   25.9570   20.1890 C.ar    1  UNL1        0.0000
   2362 C           0.7782   23.9512   21.2649 C.ar    1  UNL1        0.0000
   2363 C           3.0770   32.3420   18.1689 C.2    35  UNL35       0.0000
   2364 C         -10.3658   31.8340   19.1837 C.2    14  UNL14       0.0000
   2365 C           6.4375   22.4339   14.3501 C.ar    1  UNL1        0.0000
   2366 C          -4.8551   28.1297   25.0733 C.3     1  UNL1        0.0000
   2367 C          -6.7076   29.2450   14.2205 C.ar    1  UNL1        0.0000
   2368 C          -9.6984   22.5364   24.9321 C.ar    1  UNL1        0.0000
   2369 C           5.0942   30.9841   18.2230 C.2    35  UNL35       0.0000
   2370 C          10.6441   18.8198   19.1277 C.ar    1  UNL1        0.0000
   2371 C           1.2856   24.8125   20.2915 C.ar    1  UNL1        0.0000
   2372 C          -1.3665   25.0931   21.1632 C.ar    1  UNL1        0.0000
   2373 C           5.0147   22.0040   24.8637 C.ar    1  UNL1        0.0000
   2374 C          -5.4362   29.7694   14.2627 C.ar    1  UNL1        0.0000
   2375 C           2.0910   15.1260   25.0209 C.ar    1  UNL1        0.0000
   2376 C           6.5084   21.0348   14.4292 C.ar    1  UNL1        0.0000
   2377 N           6.5912   20.4368   15.6662 N.pl3   1  UNL1        0.0000
   2378 N           4.4354   21.8026   23.6277 N.pl3   1  UNL1        0.0000
   2379 N           5.6542   26.2718   20.7494 N.pl3   1  UNL1        0.0000
   2380 N           4.0716   17.4724   22.3946 N.pl3   1  UNL1        0.0000
   2381 O           4.8875   26.5371   18.1868 O.3     1  UNL1        0.0000
   2382 O          -5.4010   22.9381   21.1303 O.3     1  UNL1        0.0000
   2383 O           1.9982   19.0580   22.8060 O.3     1  UNL1        0.0000
   2384 O          -1.9210   31.3864   16.5329 O.3     1  UNL1        0.0000
   2385 O          -1.0280   30.0275   18.1124 O.3     1  UNL1        0.0000
   2386 O           0.4297   19.2497   21.1883 O.3     1  UNL1        0.0000
   2387 O           6.4772   26.2701   16.6000 O.3     1  UNL1        0.0000
   2388 O          -6.2508   24.2942   22.7347 O.3     1  UNL1        0.0000
   2389 O           3.8097   25.9235   15.6155 O.3     1  UNL1        0.0000
   2390 O          -3.7150   23.5082   23.2199 O.3     1  UNL1        0.0000
   2391 O           4.6708   28.2416   16.0635 O.3     1  UNL1        0.0000
   2392 O          -5.4032   21.7229   23.7199 O.3     1  UNL1        0.0000
   2393 O          -0.6874   18.6772   23.7846 O.3     1  UNL1        0.0000
   2394 O           0.6224   30.6363   16.0195 O.3     1  UNL1        0.0000
   2395 O           0.1846   20.9711   23.3183 O.3     1  UNL1        0.0000
   2396 O          -1.0245   28.8215   15.5092 O.3     1  UNL1        0.0000
   2397 O           2.2281   26.6021   18.3546 O.3     1  UNL1        0.0000
   2398 O          -4.1832   20.4919   21.0338 O.3     1  UNL1        0.0000
   2399 O           1.7194   17.9045   25.0723 O.3     1  UNL1        0.0000
   2400 O          -0.6035   32.5208   14.2546 O.2     1  UNL1        0.0000
   2401 O           2.4239   20.7189   25.0666 O.3     1  UNL1        0.0000
   2402 O          -2.7745   30.6084   14.2044 O.3     1  UNL1        0.0000
   2403 O          -2.3181   19.2265   21.1014 O.3     1  UNL1        0.0000
   2404 O           0.2272   27.6340   18.2279 O.3     1  UNL1        0.0000
   2405 O           6.8522   27.9671   14.1936 O.3     1  UNL1        0.0000
   2406 O          -7.0952   23.5034   25.0543 O.3     1  UNL1        0.0000
   2407 O           6.1531   25.1867   14.2236 O.3     1  UNL1        0.0000
   2408 O          -4.8899   25.3636   25.1254 O.2     1  UNL1        0.0000
   2409 O           1.9221   28.2500   16.1299 O.3     1  UNL1        0.0000
   2410 O          -2.4940   21.0783   23.1272 O.3     1  UNL1        0.0000
   2411 O           4.4009   27.1146   13.1819 O.3     1  UNL1        0.0000
   2412 O          -4.5853   22.8167   26.1551 O.3     1  UNL1        0.0000
   2413 H          -2.2149   26.8999   25.4635 H      37  UNL37       0.0000
   2414 H          -0.4946   25.5623   23.7162 H      37  UNL37       0.0000
   2415 C          -1.4218   26.1857   25.6488 C.2    37  UNL37       0.0000
   2416 H           2.0758   25.2629   23.5988 H      37  UNL37       0.0000
   2417 C          -0.5817   25.5248   24.7940 C.2    37  UNL37       0.0000
   2418 H           1.9999   34.3735   14.8478 H      34  UNL34       0.0000
   2419 N           3.2051   33.0085   13.8192 N.pl3  34  UNL34       0.0000
   2420 C           2.4419   24.6660   24.4437 C.3    37  UNL37       0.0000
   2421 H           2.9001   25.3372   25.1807 H      37  UNL37       0.0000
   2422 C           2.5382   33.4445   15.0504 C.3    34  UNL34       0.0000
   2423 N           0.2245   24.7061   25.5666 N.pl3  37  UNL37       0.0000
   2424 H           1.8283   32.6731   15.3727 H      34  UNL34       0.0000
   2425 H           3.2121   23.9795   24.0647 H      37  UNL37       0.0000
   2426 C           4.2034   32.1077   13.7501 C.3    34  UNL34       0.0000
   2427 C           1.3182   23.8446   25.0671 C.3    37  UNL37       0.0000
   2428 H           0.8834   23.1313   24.3536 H      37  UNL37       0.0000
   2429 H           3.2895   33.6154   15.8266 H      34  UNL34       0.0000
   2430 H           4.6606   31.6022   14.5923 H      34  UNL34       0.0000
   2431 H           1.6732   23.2666   25.9277 H      37  UNL37       0.0000
   2432 TI         -9.5279   16.3907   37.4857 Ti      1  UNL1        0.0000
   2433 TI          1.1432   19.6585   28.0650 Ti      1  UNL1        0.0000
   2434 TI         -5.3069   12.6017   35.6375 Ti      1  UNL1        0.0000
   2435 TI         -4.1479   21.8178   29.8690 Ti      1  UNL1        0.0000
   2436 TI         -5.2149   23.4626   27.9725 Ti      1  UNL1        0.0000
   2437 TI         -3.4001   12.4109   37.5800 Ti      1  UNL1        0.0000
   2438 TI         -8.5294   14.6912   35.5866 Ti      1  UNL1        0.0000
   2439 TI         -0.8436   19.8894   29.9238 Ti      1  UNL1        0.0000
   2440 H          -2.9126   15.9279   34.8039 H       1  UNL1        0.0000
   2441 H         -13.6844   24.4180   32.6988 H      18  UNL18       0.0000
   2442 H          -2.2280   25.2859   30.8709 H      38  UNL38       0.0000
   2443 H          -9.1632   20.3032   37.2689 H      23  UNL23       0.0000
   2444 H           2.0892   15.7826   28.3757 H       1  UNL1        0.0000
   2445 H         -13.4611   15.4972   37.1242 H       1  UNL1        0.0000
   2446 H           4.4546   21.7791   28.2496 H       1  UNL1        0.0000
   2447 H          -2.2868    8.4133   37.1831 H      20  UNL20       0.0000
   2448 H          -9.2486   22.7314   28.3163 H       1  UNL1        0.0000
   2449 H          -2.0026   17.4794   33.0474 H       1  UNL1        0.0000
   2450 H          -6.7048   17.9456   34.6266 H       1  UNL1        0.0000
   2451 H           5.7813   12.4470   32.5990 H       1  UNL1        0.0000
   2452 H          -8.9868   14.6071   39.2047 H       1  UNL1        0.0000
   2453 H          -0.7323   19.3527   26.3751 H       1  UNL1        0.0000
   2454 H          -2.8981   11.7686   32.0653 H       1  UNL1        0.0000
   2455 H          -5.9140   23.5894   33.5000 H       1  UNL1        0.0000
   2456 H         -12.7195   17.9364   35.2580 H       1  UNL1        0.0000
   2457 H           3.9817   17.6686   30.3527 H       1  UNL1        0.0000
   2458 H         -10.3881   16.5740   31.9094 H       1  UNL1        0.0000
   2459 H          -8.3635   25.1786   30.3455 H       1  UNL1        0.0000
   2460 H          -4.9261   26.5762   28.8301 H      39  UNL39       0.0000
   2461 H           2.0085   13.7580   29.5763 H       1  UNL1        0.0000
   2462 H          -2.0529   21.5726   28.5183 H       1  UNL1        0.0000
   2463 H          -6.4441   14.4098   36.9397 H       1  UNL1        0.0000
   2464 H           0.7556   14.4940   35.9489 H       1  UNL1        0.0000
   2465 H          -0.7041   13.9728   36.7038 H       1  UNL1        0.0000
   2466 H           1.1689   18.9462   34.8530 H       1  UNL1        0.0000
   2467 H           0.5780   19.2867   33.2382 H       1  UNL1        0.0000
   2468 H           0.4385    9.5254   35.7547 H       1  UNL1        0.0000
   2469 H          -0.8756   10.5802   36.2207 H       1  UNL1        0.0000
   2470 H          -5.2481   16.1868   35.5766 H       1  UNL1        0.0000
   2471 H          -5.7958   19.5023   32.8691 H       1  UNL1        0.0000
   2472 H          -0.9186   23.3446   30.0659 H      38  UNL38       0.0000
   2473 H           1.3395   22.8852   30.9651 H      38  UNL38       0.0000
   2474 C           1.7627   18.9344   30.9242 C.3     1  UNL1        0.0000
   2475 C         -10.5129   16.6219   34.6444 C.3     1  UNL1        0.0000
   2476 C          -2.6980   11.6826   34.6971 C.3     1  UNL1        0.0000
   2477 C          -6.1460   23.7186   30.8418 C.3     1  UNL1        0.0000
   2478 C           2.6847   18.3605   31.9136 C.ar    1  UNL1        0.0000
   2479 C         -11.4714   17.2153   33.6734 C.ar    1  UNL1        0.0000
   2480 C          -1.7423   11.1025   33.7439 C.ar    1  UNL1        0.0000
   2481 C          -7.0522   24.3328   31.8474 C.2     1  UNL1        0.0000
   2482 C           2.4414   18.4250   33.3215 C.ar    1  UNL1        0.0000
   2483 C         -11.2588   17.1046   32.2841 C.ar    1  UNL1        0.0000
   2484 C          -0.5846   10.3814   34.1896 C.ar    1  UNL1        0.0000
   2485 C          -8.1757   25.0677   31.4097 C.3     1  UNL1        0.0000
   2486 C          -6.7844   24.1694   33.2006 C.2     1  UNL1        0.0000
   2487 C          -2.0022   11.2276   32.3615 C.ar    1  UNL1        0.0000
   2488 C           3.8394   17.7019   31.4306 C.ar    1  UNL1        0.0000
   2489 C         -12.5922   17.8684   34.1792 C.ar    1  UNL1        0.0000
   2490 C          -3.8459   18.5826   32.8601 C.ar    1  UNL1        0.0000
   2491 C          -4.8575   16.8554   34.8114 C.ar    1  UNL1        0.0000
   2492 C          -0.4982   24.0015   30.8257 C.2    38  UNL38       0.0000
   2493 C          -8.3896   11.3305   32.7488 C.ar    1  UNL1        0.0000
   2494 C           2.0555   15.8635   26.2319 C.ar    1  UNL1        0.0000
   2495 C          -4.8205   27.4227   26.3092 C.2     1  UNL1        0.0000
   2496 C           0.0245   14.4706   39.2104 C.2     1  UNL1        0.0000
   2497 C         -13.3793   15.5470   39.2673 C.2     1  UNL1        0.0000
   2498 C          -3.3091   19.4997   31.8261 C.3     1  UNL1        0.0000
   2499 C          -7.8045   12.2418   33.7608 C.3     1  UNL1        0.0000
   2500 C          -2.4436   10.0736   39.3217 C.3     1  UNL1        0.0000
   2501 C          -4.8635   25.9868   26.2702 C.2     1  UNL1        0.0000
   2502 C          -1.2508   13.8089   39.2636 C.2     1  UNL1        0.0000
   2503 C         -11.9921   16.0099   39.2845 C.2     1  UNL1        0.0000
   2504 C          -5.1767   18.7178   33.2993 C.ar    1  UNL1        0.0000
   2505 C          -3.5344   16.7120   34.3751 C.ar    1  UNL1        0.0000
   2506 C          -1.2356   25.1028   31.2792 C.2    38  UNL38       0.0000
   2507 C         -14.6784   24.5948   32.2939 C.2    18  UNL18       0.0000
   2508 C           2.1250   15.1947   27.4604 C.ar    1  UNL1        0.0000
   2509 C          -9.1677   20.8905   38.1835 C.3    40  UNL40       0.0000
   2510 C         -11.0201   22.0058   27.3308 C.ar    1  UNL1        0.0000
   2511 C         -14.0109   15.2972   38.0424 C.2     1  UNL1        0.0000
   2512 C           0.7817   23.7449   31.3332 C.2    38  UNL38       0.0000
   2513 C           6.3316   11.5806   32.2379 C.ar    1  UNL1        0.0000
   2514 C          -3.0270   17.5732   33.4017 C.ar    1  UNL1        0.0000
   2515 C          -5.6790   17.8539   34.2734 C.ar    1  UNL1        0.0000
   2516 C           0.7022   14.7648   37.9739 C.2     1  UNL1        0.0000
   2517 C          -9.7487   22.5302   27.3730 C.ar    1  UNL1        0.0000
   2518 C          -2.2216    7.8867   38.1312 C.2    20  UNL20       0.0000
   2519 C           2.1959   13.7956   27.5394 C.ar    1  UNL1        0.0000
   2520 N           2.2787   13.1976   28.7764 N.pl3   1  UNL1        0.0000
   2521 N           0.1229   14.5634   36.7380 N.pl3   1  UNL1        0.0000
   2522 N           1.3416   19.0326   33.8596 N.pl3   1  UNL1        0.0000
   2523 N          -0.2409   10.2332   35.5049 N.pl3   1  UNL1        0.0000
   2524 O           0.5750   19.2979   31.2971 O.3     1  UNL1        0.0000
   2525 O          -9.7135   15.6989   34.2406 O.3     1  UNL1        0.0000
   2526 O          -2.3143   11.8188   35.9163 O.3     1  UNL1        0.0000
   2527 O          -6.2335   24.1472   29.6432 O.3     1  UNL1        0.0000
   2528 O          -5.3406   22.7883   31.2227 O.3     1  UNL1        0.0000
   2529 O          -3.8828   12.0105   34.2986 O.3     1  UNL1        0.0000
   2530 O           2.1647   19.0309   29.7103 O.3     1  UNL1        0.0000
   2531 O         -10.5633   17.0550   35.8450 O.3     1  UNL1        0.0000
   2532 O          -0.5029   18.6843   28.7258 O.3     1  UNL1        0.0000
   2533 O          -8.0275   16.2690   36.3302 O.3     1  UNL1        0.0000
   2534 O           0.3582   21.0024   29.1737 O.3     1  UNL1        0.0000
   2535 O          -9.7158   14.4837   36.8302 O.3     1  UNL1        0.0000
   2536 O          -4.9999   11.4380   36.8949 O.3     1  UNL1        0.0000
   2537 O          -3.6901   23.3971   29.1298 O.3     1  UNL1        0.0000
   2538 O          -4.1279   13.7319   36.4286 O.3     1  UNL1        0.0000
   2539 O          -5.3371   21.5822   28.6194 O.3     1  UNL1        0.0000
   2540 O          -2.0845   19.3629   31.4649 O.3     1  UNL1        0.0000
   2541 O          -8.4957   13.2527   34.1441 O.3     1  UNL1        0.0000
   2542 O          -2.5932   10.6653   38.1826 O.3     1  UNL1        0.0000
   2543 O          -4.9160   25.2816   27.3649 O.2     1  UNL1        0.0000
   2544 O          -1.8886   13.4797   38.1769 O.2     1  UNL1        0.0000
   2545 O          -7.0870   23.3692   27.3147 O.3     1  UNL1        0.0000
   2546 O          -6.6306   11.9873   34.2117 O.3     1  UNL1        0.0000
   2547 O          -4.0853   20.3948   31.3382 O.3     1  UNL1        0.0000
   2548 O           2.5396   20.7279   27.3039 O.3     1  UNL1        0.0000
   2549 O         -11.4077   16.2642   38.1645 O.2     1  UNL1        0.0000
   2550 O           1.8406   17.9475   27.3338 O.3     1  UNL1        0.0000
   2551 O          -9.2025   18.1244   38.2357 O.3     1  UNL1        0.0000
   2552 O          -2.3904   21.0108   29.2402 O.3     1  UNL1        0.0000
   2553 O          -6.8066   13.8391   36.2375 O.3     1  UNL1        0.0000
   2554 O           0.0884   19.8754   26.2921 O.3     1  UNL1        0.0000
   2555 O          -8.8978   15.5775   39.2653 O.3     1  UNL1        0.0000
   2556 H          -6.5274   19.6607   38.5738 H      41  UNL41       0.0000
   2557 H          -4.8072   18.3231   36.8265 H      41  UNL41       0.0000
   2558 C          -5.7343   18.9465   38.7591 C.3    41  UNL41       0.0000
   2559 H          -2.2367   18.0237   36.7090 H      41  UNL41       0.0000
   2560 C          -4.8942   18.2856   37.9043 C.2    41  UNL41       0.0000
   2561 H          -2.3126   27.1343   27.9581 H      37  UNL37       0.0000
   2562 N          -1.1074   25.7693   26.9294 N.pl3  37  UNL37       0.0000
   2563 C          -1.8706   17.4268   37.5540 C.3    41  UNL41       0.0000
   2564 H          -1.4125   18.0980   38.2909 H      41  UNL41       0.0000
   2565 C          -1.7743   26.2053   28.1606 C.3    37  UNL37       0.0000
   2566 N          -4.0880   17.4669   38.6769 N.2    41  UNL41       0.0000
   2567 H          -2.4843   25.4339   28.4830 H      37  UNL37       0.0000
   2568 H          -1.1005   16.7403   37.1749 H      41  UNL41       0.0000
   2569 C          -0.1091   24.8685   26.8604 C.3    37  UNL37       0.0000
   2570 C          -2.9944   16.6054   38.1774 C.3    41  UNL41       0.0000
   2571 H          -3.4291   15.8920   37.4639 H      41  UNL41       0.0000
   2572 H          -1.0230   26.3762   28.9369 H      37  UNL37       0.0000
   2573 H           0.3481   24.3630   27.7026 H      37  UNL37       0.0000
   2574 H          -2.6394   16.0274   39.0380 H      41  UNL41       0.0000
   2575 TI         29.1504    2.1155   11.2652 Ti      1  UNL1        0.0000
   2576 TI         39.8215    5.3833    1.8444 Ti      1  UNL1        0.0000
   2577 TI         33.3714   -1.6735    9.4170 Ti      1  UNL1        0.0000
   2578 TI         34.5304    7.5426    3.6484 Ti      1  UNL1        0.0000
   2579 TI         33.4634    9.1874    1.7520 Ti      1  UNL1        0.0000
   2580 TI         35.2782   -1.8643   11.3595 Ti      1  UNL1        0.0000
   2581 TI         30.1489    0.4160    9.3660 Ti      1  UNL1        0.0000
   2582 TI         37.8347    5.6142    3.7033 Ti      1  UNL1        0.0000
   2583 H          35.7657    1.6527    8.5834 H       1  UNL1        0.0000
   2584 H          24.9940   10.1428    6.4782 H       1  UNL1        0.0000
   2585 H          36.4503   11.0107    4.6503 H      24  UNL24       0.0000
   2586 H          29.5151    6.0280   11.0484 H       1  UNL1        0.0000
   2587 H          40.7675    1.5074    2.1552 H      24  UNL24       0.0000
   2588 H          25.2172    1.2219   10.9036 H       1  UNL1        0.0000
   2589 H          43.1329    7.5039    2.0291 H      42  UNL42       0.0000
   2590 H          36.3915   -5.8619   10.9625 H       1  UNL1        0.0000
   2591 H          29.4297    8.4562    2.0957 H      24  UNL24       0.0000
   2592 H          36.6757    3.2042    6.8269 H       1  UNL1        0.0000
   2593 H          31.9735    3.6704    8.4060 H       1  UNL1        0.0000
   2594 H          44.4597   -1.8282    6.3785 H      24  UNL24       0.0000
   2595 H          29.6915    0.3319   12.9842 H       1  UNL1        0.0000
   2596 H          37.9461    5.0775    0.1546 H       1  UNL1        0.0000
   2597 H          35.7802   -2.5066    5.8447 H       1  UNL1        0.0000
   2598 H          32.7644    9.3142    7.2795 H       1  UNL1        0.0000
   2599 H          25.9588    3.6612    9.0374 H       1  UNL1        0.0000
   2600 H          42.6600    3.3934    4.1322 H       1  UNL1        0.0000
   2601 H          28.2902    2.2987    5.6889 H       1  UNL1        0.0000
   2602 H          30.3148   10.9034    4.1249 H       1  UNL1        0.0000
   2603 H          33.7522   12.3010    2.6096 H       1  UNL1        0.0000
   2604 H          40.6868   -0.5172    3.3557 H      24  UNL24       0.0000
   2605 H          36.6254    7.2974    2.2978 H       1  UNL1        0.0000
   2606 H          32.2343    0.1346   10.7192 H       1  UNL1        0.0000
   2607 H          39.4340    0.2188    9.7284 H       1  UNL1        0.0000
   2608 H          37.9743   -0.3025   10.4833 H       1  UNL1        0.0000
   2609 H          39.8472    4.6710    8.6325 H       1  UNL1        0.0000
   2610 H          39.2564    5.0115    7.0176 H       1  UNL1        0.0000
   2611 H          39.1169   -4.7498    9.5342 H       1  UNL1        0.0000
   2612 H          37.8028   -3.6950   10.0002 H       1  UNL1        0.0000
   2613 H          33.4302    1.9116    9.3560 H       1  UNL1        0.0000
   2614 H          32.8826    5.2270    6.6485 H       1  UNL1        0.0000
   2615 H          37.7597    9.0694    3.8453 H      24  UNL24       0.0000
   2616 H          40.0178    8.6100    4.7446 H      24  UNL24       0.0000
   2617 C          40.4410    4.6592    4.7037 C.2     1  UNL1        0.0000
   2618 C          28.1655    2.3467    8.4239 C.3     1  UNL1        0.0000
   2619 C          35.9803   -2.5926    8.4766 C.3     1  UNL1        0.0000
   2620 C          32.5323    9.4434    4.6213 C.3     1  UNL1        0.0000
   2621 C          41.3631    4.0852    5.6930 C.2     1  UNL1        0.0000
   2622 C          27.2069    2.9401    7.4529 C.ar    1  UNL1        0.0000
   2623 C          36.9360   -3.1727    7.5233 C.2     1  UNL1        0.0000
   2624 C          31.6261   10.0576    5.6269 C.ar    1  UNL1        0.0000
   2625 C          41.1197    4.1498    7.1009 C.3     1  UNL1        0.0000
   2626 C          27.4196    2.8294    6.0635 C.ar    1  UNL1        0.0000
   2627 C          38.0938   -3.8938    7.9691 C.2     1  UNL1        0.0000
   2628 C          30.5027   10.7925    5.1891 C.ar    1  UNL1        0.0000
   2629 C          31.8940    9.8942    6.9801 C.ar    1  UNL1        0.0000
   2630 C          36.6761   -3.0476    6.1410 C.3     1  UNL1        0.0000
   2631 C          42.5177    3.4267    5.2100 C.3     1  UNL1        0.0000
   2632 C          26.0861    3.5932    7.9586 C.ar    1  UNL1        0.0000
   2633 C          34.8324    4.3074    6.6396 C.ar    1  UNL1        0.0000
   2634 C          33.8208    2.5801    8.5908 C.ar    1  UNL1        0.0000
   2635 C          38.1801    9.7262    4.6051 C.2    24  UNL24       0.0000
   2636 C          30.2887   -2.9447    6.5282 C.2     1  UNL1        0.0000
   2637 C          40.7338    1.5883    0.0113 C.3    24  UNL24       0.0000
   2638 C          33.8578   13.1474    0.0887 C.2     1  UNL1        0.0000
   2639 C          38.7029    0.1954   12.9898 C.2     1  UNL1        0.0000
   2640 C          25.2990    1.2718   13.0467 C.ar    1  UNL1        0.0000
   2641 C          35.3692    5.2245    5.6056 C.3     1  UNL1        0.0000
   2642 C          30.8738   -2.0334    7.5402 C.2     1  UNL1        0.0000
   2643 C          36.2347   -4.2016   13.1012 C.2     1  UNL1        0.0000
   2644 C          33.8148   11.7116    0.0497 C.2     1  UNL1        0.0000
   2645 C          37.4276   -0.4663   13.0430 C.2     1  UNL1        0.0000
   2646 C          26.6862    1.7347   13.0640 C.3     1  UNL1        0.0000
   2647 C          33.5016    4.4426    7.0787 C.ar    1  UNL1        0.0000
   2648 C          35.1440    2.4368    8.1546 C.ar    1  UNL1        0.0000
   2649 C          37.4428   10.8276    5.0587 C.2    24  UNL24       0.0000
   2650 C          24.0000   10.3196    6.0734 C.ar    1  UNL1        0.0000
   2651 C          40.8033    0.9195    1.2398 C.2    24  UNL24       0.0000
   2652 C          29.5107    6.6153   11.9630 C.ar    1  UNL1        0.0000
   2653 C          27.6582    7.7305    1.1102 C.2    24  UNL24       0.0000
   2654 C          24.6674    1.0220   11.8218 C.ar    1  UNL1        0.0000
   2655 C          39.4600    9.4696    5.1127 C.2    24  UNL24       0.0000
   2656 C          45.0099   -2.6946    6.0174 C.3    43  UNL43       0.0000
   2657 C          35.6514    3.2980    7.1812 C.ar    1  UNL1        0.0000
   2658 C          32.9993    3.5787    8.0529 C.ar    1  UNL1        0.0000
   2659 C          39.3805    0.4896   11.7534 C.3     1  UNL1        0.0000
   2660 C          28.9296    8.2550    1.1525 C.2    24  UNL24       0.0000
   2661 C          36.4568   -6.3885   11.9106 C.3     1  UNL1        0.0000
   2662 C          40.8742   -0.4796    1.3189 C.2    24  UNL24       0.0000
   2663 N          40.9570   -1.0777    2.5559 N.pl3  24  UNL24       0.0000
   2664 N          38.8012    0.2882   10.5174 N.3     1  UNL1        0.0000
   2665 N          40.0200    4.7573    7.6391 N.3     1  UNL1        0.0000
   2666 N          38.4374   -4.0420    9.2844 N.pl3   1  UNL1        0.0000
   2667 O          39.2533    5.0226    5.0765 O.2     1  UNL1        0.0000
   2668 O          28.9648    1.4237    8.0200 O.3     1  UNL1        0.0000
   2669 O          36.3640   -2.4564    9.6957 O.3     1  UNL1        0.0000
   2670 O          32.4448    9.8719    3.4226 O.3     1  UNL1        0.0000
   2671 O          33.3378    8.5131    5.0021 O.3     1  UNL1        0.0000
   2672 O          34.7955   -2.2647    8.0781 O.3     1  UNL1        0.0000
   2673 O          40.8430    4.7557    3.4898 O.2     1  UNL1        0.0000
   2674 O          28.1150    2.7798    9.6244 O.3     1  UNL1        0.0000
   2675 O          38.1754    4.4091    2.5052 O.3     1  UNL1        0.0000
   2676 O          30.6508    1.9937   10.1096 O.3     1  UNL1        0.0000
   2677 O          39.0365    6.7272    2.9532 O.3     1  UNL1        0.0000
   2678 O          28.9625    0.2085   10.6096 O.3     1  UNL1        0.0000
   2679 O          33.6784   -2.8372   10.6743 O.3     1  UNL1        0.0000
   2680 O          34.9882    9.1219    2.9093 O.3     1  UNL1        0.0000
   2681 O          34.5504   -0.5433   10.2080 O.3     1  UNL1        0.0000
   2682 O          33.3413    7.3070    2.3989 O.3     1  UNL1        0.0000
   2683 O          36.5939    5.0877    5.2443 O.3     1  UNL1        0.0000
   2684 O          30.1826   -1.0225    7.9235 O.2     1  UNL1        0.0000
   2685 O          36.0852   -3.6099   11.9620 O.2     1  UNL1        0.0000
   2686 O          33.7623   11.0064    1.1444 O.2     1  UNL1        0.0000
   2687 O          36.7897   -0.7955   11.9563 O.2     1  UNL1        0.0000
   2688 O          31.5913    9.0940    1.0941 O.3     1  UNL1        0.0000
   2689 O          32.0477   -2.2879    7.9912 O.2     1  UNL1        0.0000
   2690 O          34.5930    6.1196    5.1176 O.3     1  UNL1        0.0000
   2691 O          41.2180    6.4527    1.0833 O.3     1  UNL1        0.0000
   2692 O          27.2706    1.9890   11.9440 O.3     1  UNL1        0.0000
   2693 O          40.5189    3.6723    1.1133 O.3     1  UNL1        0.0000
   2694 O          29.4758    3.8491   12.0151 O.3     1  UNL1        0.0000
   2695 O          36.2879    6.7356    3.0197 O.3     1  UNL1        0.0000
   2696 O          31.8718   -0.4361   10.0169 O.3     1  UNL1        0.0000
   2697 O          38.7667    5.6001    0.0716 O.3     1  UNL1        0.0000
   2698 O          29.7805    1.3023   13.0448 O.3     1  UNL1        0.0000
   2699 H          32.1509    5.3855   12.3532 H      24  UNL24       0.0000
   2700 H          33.8712    4.0479   10.6060 H      24  UNL24       0.0000
   2701 C          32.9440    4.6713   12.5385 C.2    24  UNL24       0.0000
   2702 H          36.4416    3.7484   10.4885 H      24  UNL24       0.0000
   2703 C          33.7841    4.0104   11.6838 C.2    24  UNL24       0.0000
   2704 H          36.3657   12.8590    1.7375 H      24  UNL24       0.0000
   2705 N          37.5709   11.4941    0.7089 N.2    24  UNL24       0.0000
   2706 C          36.8077    3.1516   11.3334 C.3    24  UNL24       0.0000
   2707 H          37.2659    3.8228   12.0704 H      24  UNL24       0.0000
   2708 C          36.9040   11.9301    1.9401 C.3    24  UNL24       0.0000
   2709 N          34.5903    3.1917   12.4564 N.pl3  24  UNL24       0.0000
   2710 H          36.1941   11.1587    2.2624 H      24  UNL24       0.0000
   2711 H          37.5779    2.4651   10.9544 H      24  UNL24       0.0000
   2712 C          38.5692   10.5933    0.6399 C.2    24  UNL24       0.0000
   2713 C          35.6839    2.3302   11.9568 C.3    24  UNL24       0.0000
   2714 H          35.2492    1.6168   11.2434 H      24  UNL24       0.0000
   2715 H          37.6553   12.1009    2.7163 H      24  UNL24       0.0000
   2716 H          39.0264   10.0878    1.4820 H      24  UNL24       0.0000
   2717 H          36.0390    1.7522   12.8174 H      24  UNL24       0.0000
   2718 TI         24.8379   -5.1237   24.3754 Ti      1  UNL1        0.0000
   2719 TI         35.5090   -1.8559   14.9547 Ti      1  UNL1        0.0000
   2720 TI         29.0589   -8.9127   22.5273 Ti      1  UNL1        0.0000
   2721 TI         30.2179    0.3034   16.7587 Ti      1  UNL1        0.0000
   2722 TI         29.1509    1.9482   14.8622 Ti      1  UNL1        0.0000
   2723 TI         30.9657   -9.1035   24.4698 Ti      1  UNL1        0.0000
   2724 TI         25.8363   -6.8232   22.4763 Ti      1  UNL1        0.0000
   2725 TI         33.5222   -1.6250   16.8136 Ti      1  UNL1        0.0000
   2726 H          31.4532   -5.5865   21.6937 H       1  UNL1        0.0000
   2727 H          20.6814    2.9036   19.5885 H       1  UNL1        0.0000
   2728 H          32.1378    3.7715   17.7606 H      24  UNL24       0.0000
   2729 H          25.2026   -1.2112   24.1586 H       1  UNL1        0.0000
   2730 H          36.4550   -5.7318   15.2654 H       1  UNL1        0.0000
   2731 H          20.9046   -6.0173   24.0139 H       1  UNL1        0.0000
   2732 H          38.8204    0.2647   15.1394 H      44  UNL44       0.0000
   2733 H          32.0790  -13.1011   24.0728 H       1  UNL1        0.0000
   2734 H          25.1172    1.2170   15.2060 H       1  UNL1        0.0000
   2735 H          32.3632   -4.0350   19.9372 H       1  UNL1        0.0000
   2736 H          27.6610   -3.5688   21.5163 H       1  UNL1        0.0000
   2737 H          40.1471   -9.0674   19.4887 H      24  UNL24       0.0000
   2738 H          25.3790   -6.9073   26.0944 H       1  UNL1        0.0000
   2739 H          33.6335   -2.1617   13.2649 H       1  UNL1        0.0000
   2740 H          31.4677   -9.7458   18.9550 H       1  UNL1        0.0000
   2741 H          28.4518    2.0750   20.3897 H       1  UNL1        0.0000
   2742 H          21.6463   -3.5780   22.1477 H       1  UNL1        0.0000
   2743 H          38.3474   -3.8458   17.2425 H       1  UNL1        0.0000
   2744 H          23.9777   -4.9405   18.7991 H       1  UNL1        0.0000
   2745 H          26.0023    3.6642   17.2352 H       1  UNL1        0.0000
   2746 H          29.4396    5.0618   15.7198 H       1  UNL1        0.0000
   2747 H          36.3743   -7.7564   16.4660 H       1  UNL1        0.0000
   2748 H          32.3129    0.0582   15.4080 H       1  UNL1        0.0000
   2749 H          27.9217   -7.1046   23.8294 H       1  UNL1        0.0000
   2750 H          35.1214   -7.0204   22.8387 H       1  UNL1        0.0000
   2751 H          33.6617   -7.5417   23.5936 H       1  UNL1        0.0000
   2752 H          35.5347   -2.5682   21.7428 H       1  UNL1        0.0000
   2753 H          34.9438   -2.2277   20.1279 H       1  UNL1        0.0000
   2754 H          34.8043  -11.9890   22.6444 H       1  UNL1        0.0000
   2755 H          33.4902  -10.9342   23.1105 H       1  UNL1        0.0000
   2756 H          29.1177   -5.3276   22.4663 H       1  UNL1        0.0000
   2757 H          28.5700   -2.0122   19.7588 H       1  UNL1        0.0000
   2758 H          33.4472    1.8302   16.9556 H      24  UNL24       0.0000
   2759 H          35.7053    1.3708   17.8549 H      24  UNL24       0.0000
   2760 C          36.1284   -2.5800   17.8139 C.2     1  UNL1        0.0000
   2761 C          23.8529   -4.8925   21.5341 C.3     1  UNL1        0.0000
   2762 C          31.6678   -9.8318   21.5868 C.3     1  UNL1        0.0000
   2763 C          28.2198    2.2042   17.7315 C.3     1  UNL1        0.0000
   2764 C          37.0505   -3.1540   18.8033 C.2     1  UNL1        0.0000
   2765 C          22.8944   -4.2991   20.5632 C.ar    1  UNL1        0.0000
   2766 C          32.6235  -10.4119   20.6336 C.2     1  UNL1        0.0000
   2767 C          27.3136    2.8184   18.7372 C.ar    1  UNL1        0.0000
   2768 C          36.8072   -3.0894   20.2112 C.3     1  UNL1        0.0000
   2769 C          23.1070   -4.4098   19.1738 C.ar    1  UNL1        0.0000
   2770 C          33.7812  -11.1330   21.0793 C.2     1  UNL1        0.0000
   2771 C          26.1901    3.5533   18.2994 C.ar    1  UNL1        0.0000
   2772 C          27.5814    2.6550   20.0904 C.ar    1  UNL1        0.0000
   2773 C          32.3636  -10.2868   19.2512 C.3     1  UNL1        0.0000
   2774 C          38.2052   -3.8125   18.3203 C.3     1  UNL1        0.0000
   2775 C          21.7736   -3.6460   21.0689 C.ar    1  UNL1        0.0000
   2776 C          30.5199   -2.9318   19.7498 C.ar    1  UNL1        0.0000
   2777 C          29.5083   -4.6591   21.7011 C.ar    1  UNL1        0.0000
   2778 C          33.8676    2.4870   17.7154 C.2    24  UNL24       0.0000
   2779 C          25.9762  -10.1839   19.6385 C.2     1  UNL1        0.0000
   2780 C          36.4213   -5.6509   13.1216 C.2     1  UNL1        0.0000
   2781 C          29.5453    5.9082   13.1989 C.ar    1  UNL1        0.0000
   2782 C          34.3903   -7.0438   26.1001 C.2     1  UNL1        0.0000
   2783 C          20.9865   -5.9674   26.1570 C.ar    1  UNL1        0.0000
   2784 C          31.0567   -2.0147   18.7159 C.3     1  UNL1        0.0000
   2785 C          26.5613   -9.2726   20.6505 C.2     1  UNL1        0.0000
   2786 C          31.9222  -11.4408   26.2114 C.2     1  UNL1        0.0000
   2787 C          29.5023    4.4724   13.1600 C.3     1  UNL1        0.0000
   2788 C          33.1150   -7.7055   26.1533 C.2     1  UNL1        0.0000
   2789 C          22.3736   -5.5045   26.1743 C.3     1  UNL1        0.0000
   2790 C          29.1891   -2.7966   20.1890 C.ar    1  UNL1        0.0000
   2791 C          30.8314   -4.8024   21.2649 C.ar    1  UNL1        0.0000
   2792 C          33.1302    3.5884   18.1689 C.2    24  UNL24       0.0000
   2793 C          19.6874    3.0804   19.1837 C.ar    1  UNL1        0.0000
   2794 C          36.4908   -6.3197   14.3501 C.2     1  UNL1        0.0000
   2795 C          25.1981   -0.6239   25.0733 C.ar    1  UNL1        0.0000
   2796 C          23.3457    0.4913   14.2205 C.ar    1  UNL1        0.0000
   2797 C          20.3549   -6.2172   24.9321 C.ar    1  UNL1        0.0000
   2798 C          35.1475    2.2304   18.2230 C.2    24  UNL24       0.0000
   2799 C          40.6974   -9.9338   19.1277 C.3    45  UNL45       0.0000
   2800 C          31.3388   -3.9412   20.2915 C.ar    1  UNL1        0.0000
   2801 C          28.6868   -3.6605   21.1632 C.ar    1  UNL1        0.0000
   2802 C          35.0679   -6.7496   24.8637 C.3     1  UNL1        0.0000
   2803 C          24.6171    1.0158   14.2627 C.ar    1  UNL1        0.0000
   2804 C          32.1442  -13.6277   25.0209 C.3     1  UNL1        0.0000
   2805 C          36.5617   -7.7188   14.4292 C.2     1  UNL1        0.0000
   2806 N          36.6445   -8.3169   15.6662 N.pl3   1  UNL1        0.0000
   2807 N          34.4887   -6.9510   23.6277 N.3     1  UNL1        0.0000
   2808 N          35.7074   -2.4819   20.7494 N.3     1  UNL1        0.0000
   2809 N          34.1249  -11.2812   22.3946 N.pl3   1  UNL1        0.0000
   2810 O          34.9408   -2.2166   18.1868 O.2     1  UNL1        0.0000
   2811 O          24.6523   -5.8155   21.1303 O.3     1  UNL1        0.0000
   2812 O          32.0515   -9.6956   22.8060 O.3     1  UNL1        0.0000
   2813 O          28.1323    2.6327   16.5329 O.3     1  UNL1        0.0000
   2814 O          29.0252    1.2739   18.1124 O.3     1  UNL1        0.0000
   2815 O          30.4830   -9.5039   21.1883 O.3     1  UNL1        0.0000
   2816 O          36.5305   -2.4835   16.6000 O.2     1  UNL1        0.0000
   2817 O          23.8025   -4.4594   22.7347 O.3     1  UNL1        0.0000
   2818 O          33.8629   -2.8301   15.6155 O.3     1  UNL1        0.0000
   2819 O          26.3383   -5.2455   23.2199 O.3     1  UNL1        0.0000
   2820 O          34.7240   -0.5120   16.0635 O.3     1  UNL1        0.0000
   2821 O          24.6500   -7.0307   23.7199 O.3     1  UNL1        0.0000
   2822 O          29.3659  -10.0764   23.7846 O.3     1  UNL1        0.0000
   2823 O          30.6756    1.8827   16.0195 O.3     1  UNL1        0.0000
   2824 O          30.2379   -7.7825   23.3183 O.3     1  UNL1        0.0000
   2825 O          29.0287    0.0678   15.5092 O.3     1  UNL1        0.0000
   2826 O          32.2813   -2.1515   18.3546 O.3     1  UNL1        0.0000
   2827 O          25.8701   -8.2617   21.0338 O.2     1  UNL1        0.0000
   2828 O          31.7726  -10.8492   25.0723 O.2     1  UNL1        0.0000
   2829 O          29.4497    3.7672   14.2546 O.3     1  UNL1        0.0000
   2830 O          32.4772   -8.0347   25.0666 O.2     1  UNL1        0.0000
   2831 O          27.2788    1.8548   14.2044 O.3     1  UNL1        0.0000
   2832 O          27.7352   -9.5271   21.1014 O.2     1  UNL1        0.0000
   2833 O          30.2805   -1.1196   18.2279 O.3     1  UNL1        0.0000
   2834 O          36.9054   -0.7865   14.1936 O.2     1  UNL1        0.0000
   2835 O          22.9581   -5.2502   25.0543 O.3     1  UNL1        0.0000
   2836 O          36.2064   -3.5669   14.2236 O.2     1  UNL1        0.0000
   2837 O          25.1633   -3.3901   25.1254 O.3     1  UNL1        0.0000
   2838 O          31.9754   -0.5036   16.1299 O.3     1  UNL1        0.0000
   2839 O          27.5592   -7.6753   23.1272 O.3     1  UNL1        0.0000
   2840 O          34.4542   -1.6391   13.1819 O.3     1  UNL1        0.0000
   2841 O          25.4680   -5.9369   26.1551 O.3     1  UNL1        0.0000
   2842 H          27.8384   -1.8537   25.4635 H      24  UNL24       0.0000
   2843 H          29.5586   -3.1913   23.7162 H      24  UNL24       0.0000
   2844 C          28.6315   -2.5679   25.6488 C.2    24  UNL24       0.0000
   2845 H          32.1291   -3.4908   23.5988 H      24  UNL24       0.0000
   2846 C          29.4716   -3.2288   24.7940 C.2    24  UNL24       0.0000
   2847 H          32.0532    5.6198   14.8478 H      24  UNL24       0.0000
   2848 N          33.2584    4.2549   13.8192 N.pl3  24  UNL24       0.0000
   2849 C          32.4952   -4.0876   24.4437 C.3    24  UNL24       0.0000
   2850 H          32.9533   -3.4164   25.1807 H      24  UNL24       0.0000
   2851 C          32.5915    4.6909   15.0504 C.3    24  UNL24       0.0000
   2852 N          30.2778   -4.0475   25.5666 N.pl3  24  UNL24       0.0000
   2853 H          31.8815    3.9195   15.3727 H      24  UNL24       0.0000
   2854 H          33.2653   -4.7741   24.0647 H      24  UNL24       0.0000
   2855 C          34.2567    3.3541   13.7501 C.3    24  UNL24       0.0000
   2856 C          31.3714   -4.9090   25.0671 C.3    24  UNL24       0.0000
   2857 H          30.9367   -5.6224   24.3536 H      24  UNL24       0.0000
   2858 H          33.3427    4.8617   15.8266 H      24  UNL24       0.0000
   2859 H          34.7139    2.8486   14.5923 H      24  UNL24       0.0000
   2860 H          31.7264   -5.4870   25.9277 H      24  UNL24       0.0000
   2861 TI         20.5254  -12.3629   37.4857 Ti      1  UNL1        0.0000
   2862 TI         31.1964   -9.0951   28.0650 Ti      1  UNL1        0.0000
   2863 TI         24.7463  -16.1519   35.6375 Ti      1  UNL1        0.0000
   2864 TI         25.9054   -6.9358   29.8690 Ti      1  UNL1        0.0000
   2865 TI         24.8383   -5.2910   27.9725 Ti      1  UNL1        0.0000
   2866 TI         26.6532  -16.3427   37.5800 Ti      1  UNL1        0.0000
   2867 TI         21.5238  -14.0624   35.5866 Ti      1  UNL1        0.0000
   2868 TI         29.2096   -8.8642   29.9238 Ti      1  UNL1        0.0000
   2869 H          27.1406  -12.8257   34.8039 H       1  UNL1        0.0000
   2870 H          16.3689   -4.3356   32.6988 H       1  UNL1        0.0000
   2871 H          27.8252   -3.4677   30.8709 H      24  UNL24       0.0000
   2872 H          20.8900   -8.4504   37.2689 H      24  UNL24       0.0000
   2873 H          32.1425  -12.9710   28.3757 H       1  UNL1        0.0000
   2874 H          16.5921  -13.2565   37.1242 H       1  UNL1        0.0000
   2875 H          34.5078   -6.9745   28.2496 H      46  UNL46       0.0000
   2876 H          27.7664  -20.3403   37.1831 H      24  UNL24       0.0000
   2877 H          20.8047   -6.0222   28.3163 H       1  UNL1        0.0000
   2878 H          28.0506  -11.2742   33.0474 H       1  UNL1        0.0000
   2879 H          23.3484  -10.8080   34.6266 H       1  UNL1        0.0000
   2880 H          35.8346  -16.3066   32.5990 H      24  UNL24       0.0000
   2881 H          21.0665  -14.1465   39.2047 H       1  UNL1        0.0000
   2882 H          29.3210   -9.4009   26.3751 H       1  UNL1        0.0000
   2883 H          27.1551  -16.9850   32.0653 H       1  UNL1        0.0000
   2884 H          24.1393   -5.1642   33.5000 H       1  UNL1        0.0000
   2885 H          17.3338  -10.8172   35.2580 H       1  UNL1        0.0000
   2886 H          34.0349  -11.0850   30.3527 H       1  UNL1        0.0000
   2887 H          19.6652  -12.1797   31.9094 H       1  UNL1        0.0000
   2888 H          21.6897   -3.5750   30.3455 H       1  UNL1        0.0000
   2889 H          25.1271   -2.1774   28.8301 H       1  UNL1        0.0000
   2890 H          32.0617  -14.9956   29.5763 H       1  UNL1        0.0000
   2891 H          28.0003   -7.1810   28.5183 H       1  UNL1        0.0000
   2892 H          23.6092  -14.3438   36.9397 H       1  UNL1        0.0000
   2893 H          30.8089  -14.2596   35.9489 H       1  UNL1        0.0000
   2894 H          29.3492  -14.7809   36.7038 H       1  UNL1        0.0000
   2895 H          31.2222   -9.8074   34.8530 H       1  UNL1        0.0000
   2896 H          30.6313   -9.4669   33.2382 H       1  UNL1        0.0000
   2897 H          30.4918  -19.2282   35.7547 H       1  UNL1        0.0000
   2898 H          29.1777  -18.1734   36.2207 H       1  UNL1        0.0000
   2899 H          24.8052  -12.5668   35.5766 H       1  UNL1        0.0000
   2900 H          24.2575   -9.2514   32.8691 H       1  UNL1        0.0000
   2901 H          29.1346   -5.4090   30.0659 H      24  UNL24       0.0000
   2902 H          31.3927   -5.8684   30.9651 H      24  UNL24       0.0000
   2903 C          31.8159   -9.8192   30.9242 C.2     1  UNL1        0.0000
   2904 C          19.5404  -12.1317   34.6444 C.3     1  UNL1        0.0000
   2905 C          27.3552  -17.0710   34.6971 C.3     1  UNL1        0.0000
   2906 C          23.9072   -5.0350   30.8418 C.3     1  UNL1        0.0000
   2907 C          32.7380  -10.3932   31.9136 C.2     1  UNL1        0.0000
   2908 C          18.5818  -11.5383   33.6734 C.ar    1  UNL1        0.0000
   2909 C          28.3109  -17.6511   33.7439 C.2     1  UNL1        0.0000
   2910 C          23.0010   -4.4208   31.8474 C.ar    1  UNL1        0.0000
   2911 C          32.4946  -10.3286   33.3215 C.3     1  UNL1        0.0000
   2912 C          18.7945  -11.6490   32.2841 C.ar    1  UNL1        0.0000
   2913 C          29.4687  -18.3722   34.1896 C.2     1  UNL1        0.0000
   2914 C          21.8776   -3.6859   31.4097 C.ar    1  UNL1        0.0000
   2915 C          23.2689   -4.5842   33.2006 C.ar    1  UNL1        0.0000
   2916 C          28.0510  -17.5261   32.3615 C.3     1  UNL1        0.0000
   2917 C          33.8926  -11.0517   31.4306 C.3     1  UNL1        0.0000
   2918 C          17.4611  -10.8852   34.1792 C.ar    1  UNL1        0.0000
   2919 C          26.2073  -10.1710   32.8601 C.ar    1  UNL1        0.0000
   2920 C          25.1958  -11.8983   34.8114 C.ar    1  UNL1        0.0000
   2921 C          29.5550   -4.7522   30.8257 C.2    24  UNL24       0.0000
   2922 C          21.6636  -17.4231   32.7488 C.2     1  UNL1        0.0000
   2923 C          32.1088  -12.8901   26.2319 C.2     1  UNL1        0.0000
   2924 C          25.2327   -1.3310   26.3092 C.ar    1  UNL1        0.0000
   2925 C          30.0778  -14.2830   39.2104 C.2     1  UNL1        0.0000
   2926 C          16.6740  -13.2066   39.2673 C.2     1  UNL1        0.0000
   2927 C          26.7442   -9.2539   31.8261 C.3     1  UNL1        0.0000
   2928 C          22.2487  -16.5118   33.7608 C.2     1  UNL1        0.0000
   2929 C          27.6097  -18.6800   39.3217 C.3     1  UNL1        0.0000
   2930 C          25.1897   -2.7668   26.2702 C.3     1  UNL1        0.0000
   2931 C          28.8025  -14.9447   39.2636 C.2     1  UNL1        0.0000
   2932 C          18.0611  -12.7437   39.2845 C.2     1  UNL1        0.0000
   2933 C          24.8765  -10.0358   33.2993 C.ar    1  UNL1        0.0000
   2934 C          26.5189  -12.0416   34.3751 C.ar    1  UNL1        0.0000
   2935 C          28.8177   -3.6508   31.2792 C.2    24  UNL24       0.0000
   2936 C          15.3749   -4.1588   32.2939 C.ar    1  UNL1        0.0000
   2937 C          32.1782  -13.5589   27.4604 C.2     1  UNL1        0.0000
   2938 C          20.8856   -7.8631   38.1835 C.2    24  UNL24       0.0000
   2939 C          19.0332   -6.7479   27.3308 C.ar    1  UNL1        0.0000
   2940 C          16.0424  -13.4564   38.0424 C.2     1  UNL1        0.0000
   2941 C          30.8350   -5.0088   31.3332 C.2    24  UNL24       0.0000
   2942 C          36.3848  -17.1730   32.2379 C.3    47  UNL47       0.0000
   2943 C          27.0263  -11.1804   33.4017 C.ar    1  UNL1        0.0000
   2944 C          24.3743  -10.8997   34.2734 C.ar    1  UNL1        0.0000
   2945 C          30.7554  -13.9888   37.9739 C.3     1  UNL1        0.0000
   2946 C          20.3045   -6.2234   27.3730 C.ar    1  UNL1        0.0000
   2947 C          27.8317  -20.8669   38.1312 C.3    48  UNL48       0.0000
   2948 C          32.2492  -14.9580   27.5394 C.2     1  UNL1        0.0000
   2949 N          32.3320  -15.5561   28.7764 N.pl3   1  UNL1        0.0000
   2950 N          30.1762  -14.1902   36.7380 N.3     1  UNL1        0.0000
   2951 N          31.3949   -9.7211   33.8596 N.3     1  UNL1        0.0000
   2952 N          29.8124  -18.5204   35.5049 N.pl3   1  UNL1        0.0000
   2953 O          30.6283   -9.4558   31.2971 O.2     1  UNL1        0.0000
   2954 O          20.3398  -13.0547   34.2406 O.3     1  UNL1        0.0000
   2955 O          27.7390  -16.9348   35.9163 O.3     1  UNL1        0.0000
   2956 O          23.8197   -4.6065   29.6432 O.3     1  UNL1        0.0000
   2957 O          24.7127   -5.9653   31.2227 O.3     1  UNL1        0.0000
   2958 O          26.1705  -16.7431   34.2986 O.3     1  UNL1        0.0000
   2959 O          32.2179   -9.7227   29.7103 O.2     1  UNL1        0.0000
   2960 O          19.4899  -11.6986   35.8450 O.3     1  UNL1        0.0000
   2961 O          29.5504  -10.0693   28.7258 O.3     1  UNL1        0.0000
   2962 O          22.0258  -12.4847   36.3302 O.3     1  UNL1        0.0000
   2963 O          30.4115   -7.7512   29.1737 O.3     1  UNL1        0.0000
   2964 O          20.3375  -14.2699   36.8302 O.3     1  UNL1        0.0000
   2965 O          25.0533  -17.3156   36.8949 O.3     1  UNL1        0.0000
   2966 O          26.3631   -5.3565   29.1298 O.3     1  UNL1        0.0000
   2967 O          25.9254  -15.0217   36.4286 O.3     1  UNL1        0.0000
   2968 O          24.7162   -7.1714   28.6194 O.3     1  UNL1        0.0000
   2969 O          27.9688   -9.3907   31.4649 O.3     1  UNL1        0.0000
   2970 O          21.5576  -15.5009   34.1441 O.2     1  UNL1        0.0000
   2971 O          27.4601  -18.0884   38.1826 O.3     1  UNL1        0.0000
   2972 O          25.1372   -3.4720   27.3649 O.3     1  UNL1        0.0000
   2973 O          28.1646  -15.2739   38.1769 O.2     1  UNL1        0.0000
   2974 O          22.9662   -5.3844   27.3147 O.3     1  UNL1        0.0000
   2975 O          23.4226  -16.7663   34.2117 O.2     1  UNL1        0.0000
   2976 O          25.9680   -8.3588   31.3382 O.3     1  UNL1        0.0000
   2977 O          32.5929   -8.0257   27.3039 O.2     1  UNL1        0.0000
   2978 O          18.6456  -12.4894   38.1645 O.2     1  UNL1        0.0000
   2979 O          31.8939  -10.8061   27.3338 O.2     1  UNL1        0.0000
   2980 O          20.8508  -10.6293   38.2357 O.3     1  UNL1        0.0000
   2981 O          27.6629   -7.7428   29.2402 O.3     1  UNL1        0.0000
   2982 O          23.2467  -14.9145   36.2375 O.3     1  UNL1        0.0000
   2983 O          30.1417   -8.8783   26.2921 O.3     1  UNL1        0.0000
   2984 O          21.1554  -13.1761   39.2653 O.3     1  UNL1        0.0000
   2985 H          23.5259   -9.0929   38.5738 H      24  UNL24       0.0000
   2986 H          25.2461  -10.4305   36.8265 H      24  UNL24       0.0000
   2987 C          24.3189   -9.8071   38.7591 C.2    24  UNL24       0.0000
   2988 H          27.8166  -10.7300   36.7090 H      24  UNL24       0.0000
   2989 C          25.1591  -10.4680   37.9043 C.2    24  UNL24       0.0000
   2990 H          27.7406   -1.6194   27.9581 H      24  UNL24       0.0000
   2991 N          28.9459   -2.9843   26.9294 N.pl3  24  UNL24       0.0000
   2992 C          28.1826  -11.3268   37.5540 C.3    24  UNL24       0.0000
   2993 H          28.6408  -10.6556   38.2909 H      24  UNL24       0.0000
   2994 C          28.2789   -2.5483   28.1606 C.3    24  UNL24       0.0000
   2995 N          25.9652  -11.2867   38.6769 N.pl3  24  UNL24       0.0000
   2996 H          27.5690   -3.3198   28.4830 H      24  UNL24       0.0000
   2997 H          28.9528  -12.0133   37.1749 H      24  UNL24       0.0000
   2998 C          29.9441   -3.8852   26.8604 C.3    24  UNL24       0.0000
   2999 C          27.0589  -12.1483   38.1774 C.3    24  UNL24       0.0000
   3000 H          26.6242  -12.8616   37.4639 H      24  UNL24       0.0000
   3001 H          29.0302   -2.3775   28.9369 H      24  UNL24       0.0000
   3002 H          30.4014   -4.3906   27.7026 H      24  UNL24       0.0000
   3003 H          27.4139  -12.7262   39.0380 H      24  UNL24       0.0000
   3004 TI         22.1285   16.4923   11.2652 Ti      1  UNL1        0.0000
   3005 TI         32.7995   19.7601    1.8444 Ti      1  UNL1        0.0000
   3006 TI         26.3495   12.7033    9.4170 Ti      1  UNL1        0.0000
   3007 TI         27.5085   21.9194    3.6484 Ti      1  UNL1        0.0000
   3008 TI         26.4415   23.5642    1.7520 Ti      1  UNL1        0.0000
   3009 TI         28.2563   12.5125   11.3595 Ti      1  UNL1        0.0000
   3010 TI         23.1269   14.7928    9.3660 Ti      1  UNL1        0.0000
   3011 TI         30.8128   19.9910    3.7033 Ti      1  UNL1        0.0000
   3012 H          28.7438   16.0295    8.5834 H       1  UNL1        0.0000
   3013 H          17.9720   24.5196    6.4782 H       1  UNL1        0.0000
   3014 H          29.4284   25.3875    4.6503 H      24  UNL24       0.0000
   3015 H          22.4932   20.4048   11.0484 H       1  UNL1        0.0000
   3016 H          33.7456   15.8842    2.1552 H       1  UNL1        0.0000
   3017 H          18.1952   15.5988   10.9036 H       1  UNL1        0.0000
   3018 H          36.1110   21.8807    2.0291 H      49  UNL49       0.0000
   3019 H          29.3695    8.5149   10.9625 H       1  UNL1        0.0000
   3020 H          22.4078   22.8330    2.0957 H      24  UNL24       0.0000
   3021 H          29.6537   17.5810    6.8269 H       1  UNL1        0.0000
   3022 H          24.9515   18.0472    8.4060 H       1  UNL1        0.0000
   3023 H          37.4377   12.5486    6.3785 H      24  UNL24       0.0000
   3024 H          22.6696   14.7087   12.9842 H       1  UNL1        0.0000
   3025 H          30.9241   19.4543    0.1546 H       1  UNL1        0.0000
   3026 H          28.7583   11.8702    5.8447 H       1  UNL1        0.0000
   3027 H          25.7424   23.6910    7.2795 H       1  UNL1        0.0000
   3028 H          18.9369   18.0380    9.0374 H       1  UNL1        0.0000
   3029 H          35.6380   17.7702    4.1322 H       1  UNL1        0.0000
   3030 H          21.2683   16.6756    5.6889 H       1  UNL1        0.0000
   3031 H          23.2929   25.2802    4.1249 H       1  UNL1        0.0000
   3032 H          26.7302   26.6778    2.6096 H       1  UNL1        0.0000
   3033 H          33.6649   13.8596    3.3557 H       1  UNL1        0.0000
   3034 H          29.6035   21.6742    2.2978 H       1  UNL1        0.0000
   3035 H          25.2123   14.5114   10.7192 H       1  UNL1        0.0000
   3036 H          32.4120   14.5956    9.7284 H       1  UNL1        0.0000
   3037 H          30.9523   14.0743   10.4833 H       1  UNL1        0.0000
   3038 H          32.8253   19.0478    8.6325 H       1  UNL1        0.0000
   3039 H          32.2344   19.3883    7.0176 H       1  UNL1        0.0000
   3040 H          32.0949    9.6270    9.5342 H       1  UNL1        0.0000
   3041 H          30.7808   10.6818   10.0002 H       1  UNL1        0.0000
   3042 H          26.4083   16.2884    9.3560 H       1  UNL1        0.0000
   3043 H          25.8606   19.6038    6.6485 H       1  UNL1        0.0000
   3044 H          30.7378   23.4462    3.8453 H      24  UNL24       0.0000
   3045 H          32.9959   22.9868    4.7446 H      24  UNL24       0.0000
   3046 C          33.4190   19.0360    4.7037 C.2     1  UNL1        0.0000
   3047 C          21.1435   16.7235    8.4239 C.3     1  UNL1        0.0000
   3048 C          28.9584   11.7842    8.4766 C.3     1  UNL1        0.0000
   3049 C          25.5104   23.8202    4.6213 C.3     1  UNL1        0.0000
   3050 C          34.3411   18.4620    5.6930 C.2     1  UNL1        0.0000
   3051 C          20.1850   17.3169    7.4529 C.ar    1  UNL1        0.0000
   3052 C          29.9141   11.2041    7.5233 C.ar    1  UNL1        0.0000
   3053 C          24.6042   24.4344    5.6269 C.ar    1  UNL1        0.0000
   3054 C          34.0978   18.5266    7.1009 C.3     1  UNL1        0.0000
   3055 C          20.3976   17.2062    6.0635 C.ar    1  UNL1        0.0000
   3056 C          31.0718   10.4830    7.9691 C.ar    1  UNL1        0.0000
   3057 C          23.4807   25.1693    5.1891 C.ar    1  UNL1        0.0000
   3058 C          24.8720   24.2710    6.9801 C.ar    1  UNL1        0.0000
   3059 C          29.6542   11.3292    6.1410 C.ar    1  UNL1        0.0000
   3060 C          35.4958   17.8035    5.2100 C.3     1  UNL1        0.0000
   3061 C          19.0642   17.9700    7.9586 C.ar    1  UNL1        0.0000
   3062 C          27.8105   18.6842    6.6396 C.ar    1  UNL1        0.0000
   3063 C          26.7989   16.9569    8.5908 C.ar    1  UNL1        0.0000
   3064 C          31.1582   24.1031    4.6051 C.2    24  UNL24       0.0000
   3065 C          23.2668   11.4321    6.5282 C.ar    1  UNL1        0.0000
   3066 C          33.7119   15.9651    0.0113 C.3     1  UNL1        0.0000
   3067 C          26.8359   27.5243    0.0887 C.2     1  UNL1        0.0000
   3068 C          31.6809   14.5722   12.9898 C.2     1  UNL1        0.0000
   3069 C          18.2771   15.6486   13.0467 C.ar    1  UNL1        0.0000
   3070 C          28.3473   19.6013    5.6056 C.3     1  UNL1        0.0000
   3071 C          23.8518   12.3434    7.5402 C.3     1  UNL1        0.0000
   3072 C          29.2128   10.1752   13.1012 C.3     1  UNL1        0.0000
   3073 C          26.7928   26.0884    0.0497 C.2     1  UNL1        0.0000
   3074 C          30.4056   13.9105   13.0430 C.2     1  UNL1        0.0000
   3075 C          19.6642   16.1115   13.0640 C.3     1  UNL1        0.0000
   3076 C          26.4797   18.8194    7.0787 C.ar    1  UNL1        0.0000
   3077 C          28.1220   16.8136    8.1546 C.ar    1  UNL1        0.0000
   3078 C          30.4208   25.2044    5.0587 C.2    24  UNL24       0.0000
   3079 C          16.9780   24.6964    6.0734 C.ar    1  UNL1        0.0000
   3080 C          33.7814   15.2963    1.2398 C.2     1  UNL1        0.0000
   3081 C          22.4887   20.9921   11.9630 C.ar    1  UNL1        0.0000
   3082 C          20.6363   22.1073    1.1102 C.2    24  UNL24       0.0000
   3083 C          17.6455   15.3988   11.8218 C.ar    1  UNL1        0.0000
   3084 C          32.4381   23.8465    5.1127 C.2    24  UNL24       0.0000
   3085 C          37.9880   11.6822    6.0174 C.2    24  UNL24       0.0000
   3086 C          28.6294   17.6748    7.1812 C.ar    1  UNL1        0.0000
   3087 C          25.9774   17.9555    8.0529 C.ar    1  UNL1        0.0000
   3088 C          32.3585   14.8664   11.7534 C.3     1  UNL1        0.0000
   3089 C          21.9077   22.6318    1.1525 C.2    24  UNL24       0.0000
   3090 C          29.4348    7.9883   11.9106 C.ar    1  UNL1        0.0000
   3091 C          33.8523   13.8972    1.3189 C.2     1  UNL1        0.0000
   3092 N          33.9351   13.2992    2.5559 N.pl3   1  UNL1        0.0000
   3093 N          31.7793   14.6650   10.5174 N.3     1  UNL1        0.0000
   3094 N          32.9980   19.1342    7.6391 N.3     1  UNL1        0.0000
   3095 N          31.4155   10.3348    9.2844 N.pl3   1  UNL1        0.0000
   3096 O          32.2314   19.3994    5.0765 O.2     1  UNL1        0.0000
   3097 O          21.9429   15.8005    8.0200 O.3     1  UNL1        0.0000
   3098 O          29.3421   11.9204    9.6957 O.3     1  UNL1        0.0000
   3099 O          25.4229   24.2487    3.4226 O.3     1  UNL1        0.0000
   3100 O          26.3158   22.8899    5.0021 O.3     1  UNL1        0.0000
   3101 O          27.7736   12.1121    8.0781 O.3     1  UNL1        0.0000
   3102 O          33.8211   19.1325    3.4898 O.2     1  UNL1        0.0000
   3103 O          21.0931   17.1566    9.6244 O.3     1  UNL1        0.0000
   3104 O          31.1535   18.7859    2.5052 O.3     1  UNL1        0.0000
   3105 O          23.6289   16.3706   10.1096 O.3     1  UNL1        0.0000
   3106 O          32.0146   21.1040    2.9532 O.3     1  UNL1        0.0000
   3107 O          21.9406   14.5853   10.6096 O.3     1  UNL1        0.0000
   3108 O          26.6565   11.5396   10.6743 O.3     1  UNL1        0.0000
   3109 O          27.9662   23.4987    2.9093 O.3     1  UNL1        0.0000
   3110 O          27.5285   13.8335   10.2080 O.3     1  UNL1        0.0000
   3111 O          26.3193   21.6838    2.3989 O.3     1  UNL1        0.0000
   3112 O          29.5719   19.4645    5.2443 O.3     1  UNL1        0.0000
   3113 O          23.1607   13.3543    7.9235 O.3     1  UNL1        0.0000
   3114 O          29.0632   10.7669   11.9620 O.3     1  UNL1        0.0000
   3115 O          26.7403   25.3832    1.1444 O.2     1  UNL1        0.0000
   3116 O          29.7678   13.5813   11.9563 O.2     1  UNL1        0.0000
   3117 O          24.5694   23.4708    1.0941 O.3     1  UNL1        0.0000
   3118 O          25.0258   12.0889    7.9912 O.3     1  UNL1        0.0000
   3119 O          27.5711   20.4964    5.1176 O.3     1  UNL1        0.0000
   3120 O          34.1960   20.8295    1.0833 O.3     1  UNL1        0.0000
   3121 O          20.2487   16.3658   11.9440 O.3     1  UNL1        0.0000
   3122 O          33.4970   18.0491    1.1133 O.3     1  UNL1        0.0000
   3123 O          22.4539   18.2259   12.0151 O.3     1  UNL1        0.0000
   3124 O          29.2660   21.1124    3.0197 O.3     1  UNL1        0.0000
   3125 O          24.8498   13.9407   10.0169 O.3     1  UNL1        0.0000
   3126 O          31.7448   19.9769    0.0716 O.3     1  UNL1        0.0000
   3127 O          22.7586   15.6791   13.0448 O.3     1  UNL1        0.0000
   3128 H          25.1290   19.7623   12.3532 H      24  UNL24       0.0000
   3129 H          26.8492   18.4247   10.6060 H      24  UNL24       0.0000
   3130 C          25.9221   19.0481   12.5385 C.2    24  UNL24       0.0000
   3131 H          29.4197   18.1253   10.4885 H      24  UNL24       0.0000
   3132 C          26.7622   18.3872   11.6838 C.2    24  UNL24       0.0000
   3133 H          29.3438   27.2359    1.7375 H      24  UNL24       0.0000
   3134 N          30.5490   25.8709    0.7089 N.2    24  UNL24       0.0000
   3135 C          29.7858   17.5284   11.3334 C.3    24  UNL24       0.0000
   3136 H          30.2439   18.1996   12.0704 H      24  UNL24       0.0000
   3137 C          29.8820   26.3069    1.9401 C.3    24  UNL24       0.0000
   3138 N          27.5683   17.5685   12.4564 N.pl3  24  UNL24       0.0000
   3139 H          29.1721   25.5355    2.2624 H      24  UNL24       0.0000
   3140 H          30.5559   16.8419   10.9544 H      24  UNL24       0.0000
   3141 C          31.5473   24.9701    0.6399 C.2    24  UNL24       0.0000
   3142 C          28.6620   16.7070   11.9568 C.3    24  UNL24       0.0000
   3143 H          28.2273   15.9936   11.2434 H      24  UNL24       0.0000
   3144 H          30.6333   26.4778    2.7163 H      24  UNL24       0.0000
   3145 H          32.0045   24.4646    1.4820 H      24  UNL24       0.0000
   3146 H          29.0170   16.1290   12.8174 H      24  UNL24       0.0000
   3147 TI         17.8160    9.2531   24.3754 Ti      1  UNL1        0.0000
   3148 TI         28.4870   12.5209   14.9547 Ti      1  UNL1        0.0000
   3149 TI         22.0369    5.4641   22.5273 Ti      1  UNL1        0.0000
   3150 TI         23.1960   14.6802   16.7587 Ti      1  UNL1        0.0000
   3151 TI         22.1289   16.3250   14.8622 Ti      1  UNL1        0.0000
   3152 TI         23.9437    5.2733   24.4698 Ti      1  UNL1        0.0000
   3153 TI         18.8144    7.5536   22.4763 Ti      1  UNL1        0.0000
   3154 TI         26.5002   12.7518   16.8136 Ti      1  UNL1        0.0000
   3155 H          24.4312    8.7903   21.6937 H       1  UNL1        0.0000
   3156 H          13.6595   17.2804   19.5885 H       1  UNL1        0.0000
   3157 H          25.1158   18.1483   17.7606 H      24  UNL24       0.0000
   3158 H          18.1806   13.1656   24.1586 H       1  UNL1        0.0000
   3159 H          29.4331    8.6450   15.2654 H       1  UNL1        0.0000
   3160 H          13.8827    8.3596   24.0139 H       1  UNL1        0.0000
   3161 H          31.7984   14.6415   15.1394 H      50  UNL50       0.0000
   3162 H          25.0570    1.2757   24.0728 H       1  UNL1        0.0000
   3163 H          18.0953   15.5938   15.2060 H       1  UNL1        0.0000
   3164 H          25.3412   10.3418   19.9372 H       1  UNL1        0.0000
   3165 H          20.6390   10.8080   21.5163 H       1  UNL1        0.0000
   3166 H          33.1252    5.3094   19.4887 H      24  UNL24       0.0000
   3167 H          18.3570    7.4695   26.0944 H       1  UNL1        0.0000
   3168 H          26.6116   12.2151   13.2649 H       1  UNL1        0.0000
   3169 H          24.4457    4.6310   18.9550 H       1  UNL1        0.0000
   3170 H          21.4299   16.4518   20.3897 H       1  UNL1        0.0000
   3171 H          14.6244   10.7988   22.1477 H       1  UNL1        0.0000
   3172 H          31.3255   10.5310   17.2425 H       1  UNL1        0.0000
   3173 H          16.9558    9.4364   18.7991 H       1  UNL1        0.0000
   3174 H          18.9803   18.0410   17.2352 H       1  UNL1        0.0000
   3175 H          22.4177   19.4386   15.7198 H       1  UNL1        0.0000
   3176 H          29.3523    6.6204   16.4660 H       1  UNL1        0.0000
   3177 H          25.2909   14.4350   15.4080 H       1  UNL1        0.0000
   3178 H          20.8998    7.2722   23.8294 H       1  UNL1        0.0000
   3179 H          28.0995    7.3564   22.8387 H       1  UNL1        0.0000
   3180 H          26.6398    6.8351   23.5936 H       1  UNL1        0.0000
   3181 H          28.5128   11.8086   21.7428 H       1  UNL1        0.0000
   3182 H          27.9219   12.1491   20.1279 H       1  UNL1        0.0000
   3183 H          27.7824    2.3878   22.6444 H       1  UNL1        0.0000
   3184 H          26.4683    3.4426   23.1105 H       1  UNL1        0.0000
   3185 H          22.0958    9.0492   22.4663 H       1  UNL1        0.0000
   3186 H          21.5481   12.3646   19.7588 H       1  UNL1        0.0000
   3187 H          26.4252   16.2070   16.9556 H      24  UNL24       0.0000
   3188 H          28.6833   15.7476   17.8549 H      24  UNL24       0.0000
   3189 C          29.1065   11.7968   17.8139 C.2     1  UNL1        0.0000
   3190 C          16.8310    9.4843   21.5341 C.3     1  UNL1        0.0000
   3191 C          24.6458    4.5450   21.5868 C.3     1  UNL1        0.0000
   3192 C          21.1978   16.5810   17.7315 C.3     1  UNL1        0.0000
   3193 C          30.0286   11.2228   18.8033 C.2     1  UNL1        0.0000
   3194 C          15.8724   10.0777   20.5632 C.ar    1  UNL1        0.0000
   3195 C          25.6015    3.9649   20.6336 C.ar    1  UNL1        0.0000
   3196 C          20.2916   17.1952   18.7372 C.ar    1  UNL1        0.0000
   3197 C          29.7852   11.2874   20.2112 C.3     1  UNL1        0.0000
   3198 C          16.0851    9.9670   19.1738 C.ar    1  UNL1        0.0000
   3199 C          26.7593    3.2438   21.0793 C.ar    1  UNL1        0.0000
   3200 C          19.1682   17.9301   18.2994 C.ar    1  UNL1        0.0000
   3201 C          20.5595   17.0318   20.0904 C.ar    1  UNL1        0.0000
   3202 C          25.3416    4.0900   19.2512 C.ar    1  UNL1        0.0000
   3203 C          31.1832   10.5643   18.3203 C.3     1  UNL1        0.0000
   3204 C          14.7516   10.7308   21.0689 C.ar    1  UNL1        0.0000
   3205 C          23.4979   11.4450   19.7498 C.ar    1  UNL1        0.0000
   3206 C          22.4864    9.7177   21.7011 C.ar    1  UNL1        0.0000
   3207 C          26.8456   16.8639   17.7154 C.2    24  UNL24       0.0000
   3208 C          18.9542    4.1929   19.6385 C.ar    1  UNL1        0.0000
   3209 C          29.3994    8.7259   13.1216 C.ar    1  UNL1        0.0000
   3210 C          22.5233   20.2851   13.1989 C.ar    1  UNL1        0.0000
   3211 C          27.3684    7.3330   26.1001 C.2     1  UNL1        0.0000
   3212 C          13.9646    8.4094   26.1570 C.ar    1  UNL1        0.0000
   3213 C          24.0348   12.3621   18.7159 C.3     1  UNL1        0.0000
   3214 C          19.5393    5.1042   20.6505 C.3     1  UNL1        0.0000
   3215 C          24.9003    2.9360   26.2114 C.3     1  UNL1        0.0000
   3216 C          22.4803   18.8492   13.1600 C.3     1  UNL1        0.0000
   3217 C          26.0931    6.6713   26.1533 C.2     1  UNL1        0.0000
   3218 C          15.3517    8.8723   26.1743 C.3     1  UNL1        0.0000
   3219 C          22.1671   11.5802   20.1890 C.ar    1  UNL1        0.0000
   3220 C          23.8095    9.5744   21.2649 C.ar    1  UNL1        0.0000
   3221 C          26.1083   17.9652   18.1689 C.2    24  UNL24       0.0000
   3222 C          12.6655   17.4572   19.1837 C.ar    1  UNL1        0.0000
   3223 C          29.4688    8.0571   14.3501 C.ar    1  UNL1        0.0000
   3224 C          18.1762   13.7529   25.0733 C.ar    1  UNL1        0.0000
   3225 C          16.3238   14.8681   14.2205 C.ar    1  UNL1        0.0000
   3226 C          13.3330    8.1596   24.9321 C.ar    1  UNL1        0.0000
   3227 C          28.1256   16.6073   18.2230 C.2    24  UNL24       0.0000
   3228 C          33.6754    4.4430   19.1277 C.2    24  UNL24       0.0000
   3229 C          24.3169   10.4356   20.2915 C.ar    1  UNL1        0.0000
   3230 C          21.6649   10.7163   21.1632 C.ar    1  UNL1        0.0000
   3231 C          28.0460    7.6272   24.8637 C.3     1  UNL1        0.0000
   3232 C          17.5951   15.3926   14.2627 C.ar    1  UNL1        0.0000
   3233 C          25.1223    0.7491   25.0209 C.ar    1  UNL1        0.0000
   3234 C          29.5398    6.6580   14.4292 C.ar    1  UNL1        0.0000
   3235 N          29.6226    6.0599   15.6662 N.pl3   1  UNL1        0.0000
   3236 N          27.4668    7.4258   23.6277 N.3     1  UNL1        0.0000
   3237 N          28.6855   11.8950   20.7494 N.3     1  UNL1        0.0000
   3238 N          27.1030    3.0956   22.3946 N.pl3   1  UNL1        0.0000
   3239 O          27.9189   12.1602   18.1868 O.2     1  UNL1        0.0000
   3240 O          17.6304    8.5613   21.1303 O.3     1  UNL1        0.0000
   3241 O          25.0295    4.6812   22.8060 O.3     1  UNL1        0.0000
   3242 O          21.1103   17.0095   16.5329 O.3     1  UNL1        0.0000
   3243 O          22.0033   15.6507   18.1124 O.3     1  UNL1        0.0000
   3244 O          23.4610    4.8729   21.1883 O.3     1  UNL1        0.0000
   3245 O          29.5085   11.8933   16.6000 O.2     1  UNL1        0.0000
   3246 O          16.7805    9.9174   22.7347 O.3     1  UNL1        0.0000
   3247 O          26.8410   11.5467   15.6155 O.3     1  UNL1        0.0000
   3248 O          19.3164    9.1313   23.2199 O.3     1  UNL1        0.0000
   3249 O          27.7021   13.8648   16.0635 O.3     1  UNL1        0.0000
   3250 O          17.6281    7.3461   23.7199 O.3     1  UNL1        0.0000
   3251 O          22.3439    4.3004   23.7846 O.3     1  UNL1        0.0000
   3252 O          23.6537   16.2595   16.0195 O.3     1  UNL1        0.0000
   3253 O          23.2160    6.5943   23.3183 O.3     1  UNL1        0.0000
   3254 O          22.0068   14.4446   15.5092 O.3     1  UNL1        0.0000
   3255 O          25.2594   12.2253   18.3546 O.3     1  UNL1        0.0000
   3256 O          18.8481    6.1151   21.0338 O.3     1  UNL1        0.0000
   3257 O          24.7507    3.5277   25.0723 O.3     1  UNL1        0.0000
   3258 O          22.4278   18.1440   14.2546 O.3     1  UNL1        0.0000
   3259 O          25.4552    6.3421   25.0666 O.2     1  UNL1        0.0000
   3260 O          20.2568   16.2316   14.2044 O.3     1  UNL1        0.0000
   3261 O          20.7132    4.8497   21.1014 O.3     1  UNL1        0.0000
   3262 O          23.2586   13.2572   18.2279 O.3     1  UNL1        0.0000
   3263 O          29.8835   13.5903   14.1936 O.2     1  UNL1        0.0000
   3264 O          15.9362    9.1266   25.0543 O.3     1  UNL1        0.0000
   3265 O          29.1845   10.8099   14.2236 O.3     1  UNL1        0.0000
   3266 O          18.1414   10.9867   25.1254 O.3     1  UNL1        0.0000
   3267 O          24.9535   13.8732   16.1299 O.3     1  UNL1        0.0000
   3268 O          20.5373    6.7015   23.1272 O.3     1  UNL1        0.0000
   3269 O          27.4323   12.7377   13.1819 O.3     1  UNL1        0.0000
   3270 O          18.4460    8.4399   26.1551 O.3     1  UNL1        0.0000
   3271 H          20.8165   12.5231   25.4635 H      24  UNL24       0.0000
   3272 H          22.5367   11.1855   23.7162 H      24  UNL24       0.0000
   3273 C          21.6095   11.8089   25.6488 C.2    24  UNL24       0.0000
   3274 H          25.1072   10.8861   23.5988 H      24  UNL24       0.0000
   3275 C          22.4497   11.1480   24.7940 C.2    24  UNL24       0.0000
   3276 H          25.0312   19.9967   14.8478 H      24  UNL24       0.0000
   3277 N          26.2365   18.6317   13.8192 N.pl3  24  UNL24       0.0000
   3278 C          25.4732   10.2892   24.4437 C.3    24  UNL24       0.0000
   3279 H          25.9314   10.9604   25.1807 H      24  UNL24       0.0000
   3280 C          25.5695   19.0677   15.0504 C.3    24  UNL24       0.0000
   3281 N          23.2558   10.3293   25.5666 N.pl3  24  UNL24       0.0000
   3282 H          24.8596   18.2963   15.3727 H      24  UNL24       0.0000
   3283 H          26.2434    9.6027   24.0647 H      24  UNL24       0.0000
   3284 C          27.2347   17.7309   13.7501 C.3    24  UNL24       0.0000
   3285 C          24.3495    9.4678   25.0671 C.3    24  UNL24       0.0000
   3286 H          23.9148    8.7544   24.3536 H      24  UNL24       0.0000
   3287 H          26.3208   19.2386   15.8266 H      24  UNL24       0.0000
   3288 H          27.6920   17.2254   14.5923 H      24  UNL24       0.0000
   3289 H          24.7045    8.8898   25.9277 H      24  UNL24       0.0000
   3290 TI         13.5034    2.0139   37.4857 Ti      1  UNL1        0.0000
   3291 TI         24.1745    5.2817   28.0650 Ti      1  UNL1        0.0000
   3292 TI         17.7244   -1.7751   35.6375 Ti      1  UNL1        0.0000
   3293 TI         18.8834    7.4410   29.8690 Ti      1  UNL1        0.0000
   3294 TI         17.8164    9.0858   27.9725 Ti      1  UNL1        0.0000
   3295 TI         19.6312   -1.9659   37.5800 Ti      1  UNL1        0.0000
   3296 TI         14.5019    0.3144   35.5866 Ti      1  UNL1        0.0000
   3297 TI         22.1877    5.5126   29.9238 Ti      1  UNL1        0.0000
   3298 H          20.1187    1.5511   34.8039 H       1  UNL1        0.0000
   3299 H           9.3470   10.0412   32.6988 H       1  UNL1        0.0000
   3300 H          20.8033   10.9091   30.8709 H      24  UNL24       0.0000
   3301 H          13.8681    5.9264   37.2689 H      24  UNL24       0.0000
   3302 H          25.1205    1.4058   28.3757 H       1  UNL1        0.0000
   3303 H           9.5702    1.1204   37.1242 H       1  UNL1        0.0000
   3304 H          27.4859    7.4023   28.2496 H      51  UNL51       0.0000
   3305 H          20.7445   -5.9635   37.1831 H      24  UNL24       0.0000
   3306 H          13.7827    8.3546   28.3163 H       1  UNL1        0.0000
   3307 H          21.0287    3.1026   33.0474 H       1  UNL1        0.0000
   3308 H          16.3265    3.5688   34.6266 H       1  UNL1        0.0000
   3309 H          28.8127   -1.9298   32.5990 H      24  UNL24       0.0000
   3310 H          14.0445    0.2303   39.2047 H       1  UNL1        0.0000
   3311 H          22.2991    4.9759   26.3751 H       1  UNL1        0.0000
   3312 H          20.1332   -2.6082   32.0653 H       1  UNL1        0.0000
   3313 H          17.1174    9.2126   33.5000 H       1  UNL1        0.0000
   3314 H          10.3118    3.5596   35.2580 H       1  UNL1        0.0000
   3315 H          27.0130    3.2918   30.3527 H       1  UNL1        0.0000
   3316 H          12.6432    2.1972   31.9094 H       1  UNL1        0.0000
   3317 H          14.6678   10.8018   30.3455 H       1  UNL1        0.0000
   3318 H          18.1052   12.1994   28.8301 H       1  UNL1        0.0000
   3319 H          25.0398   -0.6188   29.5763 H       1  UNL1        0.0000
   3320 H          20.9784    7.1958   28.5183 H       1  UNL1        0.0000
   3321 H          16.5873    0.0330   36.9397 H       1  UNL1        0.0000
   3322 H          23.7870    0.1172   35.9489 H       1  UNL1        0.0000
   3323 H          22.3273   -0.4041   36.7038 H       1  UNL1        0.0000
   3324 H          24.2002    4.5694   34.8530 H       1  UNL1        0.0000
   3325 H          23.6094    4.9099   33.2382 H       1  UNL1        0.0000
   3326 H          23.4699   -4.8514   35.7547 H       1  UNL1        0.0000
   3327 H          22.1558   -3.7966   36.2207 H       1  UNL1        0.0000
   3328 H          17.7832    1.8100   35.5766 H       1  UNL1        0.0000
   3329 H          17.2356    5.1254   32.8691 H       1  UNL1        0.0000
   3330 H          22.1127    8.9678   30.0659 H      24  UNL24       0.0000
   3331 H          24.3708    8.5084   30.9651 H      24  UNL24       0.0000
   3332 C          24.7940    4.5576   30.9242 C.2     1  UNL1        0.0000
   3333 C          12.5185    2.2451   34.6444 C.3     1  UNL1        0.0000
   3334 C          20.3333   -2.6942   34.6971 C.3     1  UNL1        0.0000
   3335 C          16.8853    9.3418   30.8418 C.3     1  UNL1        0.0000
   3336 C          25.7161    3.9836   31.9136 C.2     1  UNL1        0.0000
   3337 C          11.5599    2.8385   33.6734 C.ar    1  UNL1        0.0000
   3338 C          21.2890   -3.2743   33.7439 C.ar    1  UNL1        0.0000
   3339 C          15.9791    9.9560   31.8474 C.ar    1  UNL1        0.0000
   3340 C          25.4727    4.0482   33.3215 C.3     1  UNL1        0.0000
   3341 C          11.7726    2.7278   32.2841 C.ar    1  UNL1        0.0000
   3342 C          22.4468   -3.9954   34.1896 C.ar    1  UNL1        0.0000
   3343 C          14.8557   10.6909   31.4097 C.ar    1  UNL1        0.0000
   3344 C          16.2470    9.7926   33.2006 C.ar    1  UNL1        0.0000
   3345 C          21.0291   -3.1492   32.3615 C.ar    1  UNL1        0.0000
   3346 C          26.8707    3.3251   31.4306 C.3     1  UNL1        0.0000
   3347 C          10.4391    3.4916   34.1792 C.ar    1  UNL1        0.0000
   3348 C          19.1854    4.2058   32.8601 C.ar    1  UNL1        0.0000
   3349 C          18.1738    2.4785   34.8114 C.ar    1  UNL1        0.0000
   3350 C          22.5331    9.6247   30.8257 C.2    24  UNL24       0.0000
   3351 C          14.6417   -3.0463   32.7488 C.ar    1  UNL1        0.0000
   3352 C          25.0868    1.4867   26.2319 C.ar    1  UNL1        0.0000
   3353 C          18.2108   13.0459   26.3092 C.ar    1  UNL1        0.0000
   3354 C          23.0559    0.0938   39.2104 C.2     1  UNL1        0.0000
   3355 C           9.6520    1.1702   39.2673 C.2     1  UNL1        0.0000
   3356 C          19.7222    5.1229   31.8261 C.3     1  UNL1        0.0000
   3357 C          15.2268   -2.1350   33.7608 C.3     1  UNL1        0.0000
   3358 C          20.5877   -4.3032   39.3217 C.3     1  UNL1        0.0000
   3359 C          18.1678   11.6100   26.2702 C.3     1  UNL1        0.0000
   3360 C          21.7806   -0.5679   39.2636 C.2     1  UNL1        0.0000
   3361 C          11.0392    1.6331   39.2845 C.2     1  UNL1        0.0000
   3362 C          17.8546    4.3410   33.2993 C.ar    1  UNL1        0.0000
   3363 C          19.4970    2.3352   34.3751 C.ar    1  UNL1        0.0000
   3364 C          21.7958   10.7260   31.2792 C.2    24  UNL24       0.0000
   3365 C           8.3530   10.2180   32.2939 C.ar    1  UNL1        0.0000
   3366 C          25.1563    0.8179   27.4604 C.ar    1  UNL1        0.0000
   3367 C          13.8637    6.5137   38.1835 C.2    24  UNL24       0.0000
   3368 C          12.0112    7.6289   27.3308 C.ar    1  UNL1        0.0000
   3369 C           9.0204    0.9204   38.0424 C.2     1  UNL1        0.0000
   3370 C          23.8130    9.3680   31.3332 C.2    24  UNL24       0.0000
   3371 C          29.3629   -2.7962   32.2379 C.2    24  UNL24       0.0000
   3372 C          20.0044    3.1964   33.4017 C.ar    1  UNL1        0.0000
   3373 C          17.3523    3.4771   34.2734 C.ar    1  UNL1        0.0000
   3374 C          23.7335    0.3880   37.9739 C.3     1  UNL1        0.0000
   3375 C          13.2826    8.1534   27.3730 C.ar    1  UNL1        0.0000
   3376 C          20.8098   -6.4901   38.1312 C.2    24  UNL24       0.0000
   3377 C          25.2272   -0.5812   27.5394 C.ar    1  UNL1        0.0000
   3378 N          25.3100   -1.1793   28.7764 N.pl3   1  UNL1        0.0000
   3379 N          23.1542    0.1866   36.7380 N.3     1  UNL1        0.0000
   3380 N          24.3730    4.6557   33.8596 N.3     1  UNL1        0.0000
   3381 N          22.7904   -4.1436   35.5049 N.pl3   1  UNL1        0.0000
   3382 O          23.6063    4.9210   31.2971 O.2     1  UNL1        0.0000
   3383 O          13.3178    1.3221   34.2406 O.3     1  UNL1        0.0000
   3384 O          20.7170   -2.5580   35.9163 O.3     1  UNL1        0.0000
   3385 O          16.7978    9.7703   29.6432 O.3     1  UNL1        0.0000
   3386 O          17.6908    8.4115   31.2227 O.3     1  UNL1        0.0000
   3387 O          19.1485   -2.3663   34.2986 O.3     1  UNL1        0.0000
   3388 O          25.1960    4.6541   29.7103 O.2     1  UNL1        0.0000
   3389 O          12.4680    2.6782   35.8450 O.3     1  UNL1        0.0000
   3390 O          22.5284    4.3075   28.7258 O.3     1  UNL1        0.0000
   3391 O          15.0038    1.8921   36.3302 O.3     1  UNL1        0.0000
   3392 O          23.3895    6.6256   29.1737 O.3     1  UNL1        0.0000
   3393 O          13.3155    0.1069   36.8302 O.3     1  UNL1        0.0000
   3394 O          18.0314   -2.9388   36.8949 O.3     1  UNL1        0.0000
   3395 O          19.3412    9.0203   29.1298 O.3     1  UNL1        0.0000
   3396 O          18.9034   -0.6449   36.4286 O.3     1  UNL1        0.0000
   3397 O          17.6943    7.2054   28.6194 O.3     1  UNL1        0.0000
   3398 O          20.9469    4.9861   31.4649 O.3     1  UNL1        0.0000
   3399 O          14.5356   -1.1241   34.1441 O.3     1  UNL1        0.0000
   3400 O          20.4382   -3.7115   38.1826 O.3     1  UNL1        0.0000
   3401 O          18.1153   10.9048   27.3649 O.3     1  UNL1        0.0000
   3402 O          21.1427   -0.8971   38.1769 O.2     1  UNL1        0.0000
   3403 O          15.9443    8.9924   27.3147 O.3     1  UNL1        0.0000
   3404 O          16.4007   -2.3895   34.2117 O.3     1  UNL1        0.0000
   3405 O          18.9460    6.0180   31.3382 O.3     1  UNL1        0.0000
   3406 O          25.5710    6.3511   27.3039 O.2     1  UNL1        0.0000
   3407 O          11.6236    1.8874   38.1645 O.2     1  UNL1        0.0000
   3408 O          24.8719    3.5707   27.3338 O.3     1  UNL1        0.0000
   3409 O          13.8288    3.7475   38.2357 O.3     1  UNL1        0.0000
   3410 O          20.6409    6.6340   29.2402 O.3     1  UNL1        0.0000
   3411 O          16.2248   -0.5377   36.2375 O.3     1  UNL1        0.0000
   3412 O          23.1197    5.4985   26.2921 O.3     1  UNL1        0.0000
   3413 O          14.1335    1.2007   39.2653 O.3     1  UNL1        0.0000
   3414 H          16.5039    5.2839   38.5738 H      24  UNL24       0.0000
   3415 H          18.2242    3.9463   36.8265 H      24  UNL24       0.0000
   3416 C          17.2970    4.5697   38.7591 C.2    24  UNL24       0.0000
   3417 H          20.7946    3.6469   36.7090 H      24  UNL24       0.0000
   3418 C          18.1371    3.9088   37.9043 C.2    24  UNL24       0.0000
   3419 H          20.7187   12.7574   27.9581 H      24  UNL24       0.0000
   3420 N          21.9239   11.3925   26.9294 N.pl3  24  UNL24       0.0000
   3421 C          21.1607    3.0500   37.5540 C.3    24  UNL24       0.0000
   3422 H          21.6189    3.7212   38.2909 H      24  UNL24       0.0000
   3423 C          21.2570   11.8285   28.1606 C.3    24  UNL24       0.0000
   3424 N          18.9433    3.0901   38.6769 N.pl3  24  UNL24       0.0000
   3425 H          20.5471   11.0571   28.4830 H      24  UNL24       0.0000
   3426 H          21.9309    2.3635   37.1749 H      24  UNL24       0.0000
   3427 C          22.9222   10.4917   26.8604 C.3    24  UNL24       0.0000
   3428 C          20.0369    2.2286   38.1774 C.3    24  UNL24       0.0000
   3429 H          19.6022    1.5152   37.4639 H      24  UNL24       0.0000
   3430 H          22.0083   11.9994   28.9369 H      24  UNL24       0.0000
   3431 H          23.3794    9.9862   27.7026 H      24  UNL24       0.0000
   3432 H          20.3920    1.6506   39.0380 H      24  UNL24       0.0000
   3433 TI         15.1066   30.8691   11.2652 Ti      1  UNL1        0.0000
   3434 TI         25.7776   34.1369    1.8444 Ti     24  UNL24       0.0000
   3435 TI         19.3275   27.0801    9.4170 Ti      1  UNL1        0.0000
   3436 TI         20.4866   36.2962    3.6484 Ti     24  UNL24       0.0000
   3437 TI         19.4195   37.9411    1.7520 Ti     24  UNL24       0.0000
   3438 TI         21.2343   26.8893   11.3595 Ti      1  UNL1        0.0000
   3439 TI         16.1050   29.1696    9.3660 Ti      1  UNL1        0.0000
   3440 TI         23.7908   34.3678    3.7033 Ti     24  UNL24       0.0000
   3441 H          21.7218   30.4063    8.5834 H      24  UNL24       0.0000
   3442 H          10.9501   38.8964    6.4782 H      32  UNL32       0.0000
   3443 H          22.4064   39.7643    4.6503 H      24  UNL24       0.0000
   3444 H          15.4712   34.7816   11.0484 H       1  UNL1        0.0000
   3445 H          26.7237   30.2610    2.1552 H       1  UNL1        0.0000
   3446 H          11.1733   29.9756   10.9036 H       1  UNL1        0.0000
   3447 H          29.0890   36.2575    2.0291 H      52  UNL52       0.0000
   3448 H          22.3476   22.8917   10.9625 H       1  UNL1        0.0000
   3449 H          15.3859   37.2098    2.0957 H      24  UNL24       0.0000
   3450 H          22.6318   31.9578    6.8269 H      24  UNL24       0.0000
   3451 H          17.9296   32.4240    8.4060 H      24  UNL24       0.0000
   3452 H          30.4158   26.9254    6.3785 H      24  UNL24       0.0000
   3453 H          15.6476   29.0855   12.9842 H       1  UNL1        0.0000
   3454 H          23.9022   33.8311    0.1546 H      24  UNL24       0.0000
   3455 H          21.7363   26.2470    5.8447 H       1  UNL1        0.0000
   3456 H          18.7205   38.0678    7.2795 H      24  UNL24       0.0000
   3457 H          11.9150   32.4148    9.0374 H       1  UNL1        0.0000
   3458 H          28.6161   32.1470    4.1322 H      24  UNL24       0.0000
   3459 H          14.2464   31.0524    5.6889 H       1  UNL1        0.0000
   3460 H          16.2709   39.6570    4.1249 H      24  UNL24       0.0000
   3461 H          19.7083   41.0546    2.6096 H      53  UNL53       0.0000
   3462 H          26.6429   28.2364    3.3557 H       1  UNL1        0.0000
   3463 H          22.5815   36.0510    2.2978 H      24  UNL24       0.0000
   3464 H          18.1904   28.8882   10.7192 H       1  UNL1        0.0000
   3465 H          25.3901   28.9724    9.7284 H       1  UNL1        0.0000
   3466 H          23.9304   28.4512   10.4833 H       1  UNL1        0.0000
   3467 H          25.8034   33.4246    8.6325 H      24  UNL24       0.0000
   3468 H          25.2125   33.7651    7.0176 H      24  UNL24       0.0000
   3469 H          25.0730   24.0038    9.5342 H       1  UNL1        0.0000
   3470 H          23.7589   25.0586   10.0002 H       1  UNL1        0.0000
   3471 H          19.3864   30.6652    9.3560 H      24  UNL24       0.0000
   3472 H          18.8387   33.9807    6.6485 H      24  UNL24       0.0000
   3473 H          23.7158   37.8230    3.8453 H      24  UNL24       0.0000
   3474 H          25.9739   37.3636    4.7446 H      24  UNL24       0.0000
   3475 C          26.3971   33.4128    4.7037 C.2    24  UNL24       0.0000
   3476 C          14.1216   31.1003    8.4239 C.3     1  UNL1        0.0000
   3477 C          21.9364   26.1610    8.4766 C.3     1  UNL1        0.0000
   3478 C          18.4884   38.1970    4.6213 C.3    24  UNL24       0.0000
   3479 C          27.3192   32.8389    5.6930 C.2    24  UNL24       0.0000
   3480 C          13.1630   31.6937    7.4529 C.ar    1  UNL1        0.0000
   3481 C          22.8921   25.5809    7.5233 C.ar    1  UNL1        0.0000
   3482 C          17.5822   38.8112    5.6269 C.2    24  UNL24       0.0000
   3483 C          27.0758   32.9034    7.1009 C.3    24  UNL24       0.0000
   3484 C          13.3757   31.5830    6.0635 C.ar    1  UNL1        0.0000
   3485 C          24.0499   24.8598    7.9691 C.ar    1  UNL1        0.0000
   3486 C          16.4588   39.5461    5.1891 C.3    24  UNL24       0.0000
   3487 C          17.8501   38.6478    6.9801 C.2    24  UNL24       0.0000
   3488 C          22.6322   25.7060    6.1410 C.ar    1  UNL1        0.0000
   3489 C          28.4738   32.1803    5.2100 C.3    24  UNL24       0.0000
   3490 C          12.0422   32.3468    7.9586 C.ar    1  UNL1        0.0000
   3491 C          20.7885   33.0610    6.6396 C.ar   24  UNL24       0.0000
   3492 C          19.7769   31.3338    8.5908 C.ar   24  UNL24       0.0000
   3493 C          24.1362   38.4799    4.6051 C.2    24  UNL24       0.0000
   3494 C          16.2448   25.8089    6.5282 C.ar    1  UNL1        0.0000
   3495 C          26.6899   30.3419    0.0113 C.3     1  UNL1        0.0000
   3496 C          19.8139   41.9011    0.0887 C.3    24  UNL24       0.0000
   3497 C          24.6590   28.9490   12.9898 C.2     1  UNL1        0.0000
   3498 C          11.2552   30.0254   13.0467 C.ar    1  UNL1        0.0000
   3499 C          21.3254   33.9781    5.6056 C.3    24  UNL24       0.0000
   3500 C          16.8299   26.7202    7.5402 C.3     1  UNL1        0.0000
   3501 C          22.1909   24.5520   13.1012 C.3     1  UNL1        0.0000
   3502 C          19.7709   40.4652    0.0497 C.3    24  UNL24       0.0000
   3503 C          23.3837   28.2873   13.0430 C.2     1  UNL1        0.0000
   3504 C          12.6423   30.4883   13.0640 C.3     1  UNL1        0.0000
   3505 C          19.4577   33.1962    7.0787 C.ar   24  UNL24       0.0000
   3506 C          21.1001   31.1904    8.1546 C.ar   24  UNL24       0.0000
   3507 C          23.3989   39.5812    5.0587 C.3    24  UNL24       0.0000
   3508 C           9.9561   39.0732    6.0734 C.2    32  UNL32       0.0000
   3509 C          26.7594   29.6731    1.2398 C.2     1  UNL1        0.0000
   3510 C          15.4668   35.3689   11.9630 C.3     1  UNL1        0.0000
   3511 C          13.6144   36.4842    1.1102 C.2    24  UNL24       0.0000
   3512 C          10.6235   29.7756   11.8218 C.ar    1  UNL1        0.0000
   3513 C          25.4162   38.2233    5.1127 C.2    24  UNL24       0.0000
   3514 C          30.9660   26.0590    6.0174 C.2    24  UNL24       0.0000
   3515 C          21.6075   32.0517    7.1812 C.ar   24  UNL24       0.0000
   3516 C          18.9555   32.3323    8.0529 C.ar   24  UNL24       0.0000
   3517 C          25.3366   29.2432   11.7534 C.3     1  UNL1        0.0000
   3518 C          14.8857   37.0086    1.1525 C.2    24  UNL24       0.0000
   3519 C          22.4129   22.3652   11.9106 C.ar    1  UNL1        0.0000
   3520 C          26.8303   28.2740    1.3189 C.2     1  UNL1        0.0000
   3521 N          26.9132   27.6760    2.5559 N.pl3   1  UNL1        0.0000
   3522 N          24.7574   29.0418   10.5174 N.3     1  UNL1        0.0000
   3523 N          25.9761   33.5110    7.6391 N.3    24  UNL24       0.0000
   3524 N          24.3936   24.7116    9.2844 N.pl3   1  UNL1        0.0000
   3525 O          25.2095   33.7763    5.0765 O.2    24  UNL24       0.0000
   3526 O          14.9210   30.1773    8.0200 O.3     1  UNL1        0.0000
   3527 O          22.3201   26.2972    9.6957 O.3     1  UNL1        0.0000
   3528 O          18.4009   38.6256    3.4226 O.3    24  UNL24       0.0000
   3529 O          19.2939   37.2667    5.0021 O.3    24  UNL24       0.0000
   3530 O          20.7516   26.4890    8.0781 O.3     1  UNL1        0.0000
   3531 O          26.7991   33.5093    3.4898 O.2    24  UNL24       0.0000
   3532 O          14.0711   31.5334    9.6244 O.3     1  UNL1        0.0000
   3533 O          24.1316   33.1627    2.5052 O.3    24  UNL24       0.0000
   3534 O          16.6070   30.7474   10.1096 O.3     1  UNL1        0.0000
   3535 O          24.9927   35.4808    2.9532 O.3    24  UNL24       0.0000
   3536 O          14.9187   28.9621   10.6096 O.3     1  UNL1        0.0000
   3537 O          19.6345   25.9164   10.6743 O.3     1  UNL1        0.0000
   3538 O          20.9443   37.8755    2.9093 O.3    24  UNL24       0.0000
   3539 O          20.5066   28.2103   10.2080 O.3     1  UNL1        0.0000
   3540 O          19.2974   36.0607    2.3989 O.3    24  UNL24       0.0000
   3541 O          22.5500   33.8413    5.2443 O.3    24  UNL24       0.0000
   3542 O          16.1387   27.7311    7.9235 O.3     1  UNL1        0.0000
   3543 O          22.0413   25.1437   11.9620 O.3     1  UNL1        0.0000
   3544 O          19.7184   39.7600    1.1444 O.3    24  UNL24       0.0000
   3545 O          22.7458   27.9581   11.9563 O.2     1  UNL1        0.0000
   3546 O          17.5474   37.8476    1.0941 O.3    24  UNL24       0.0000
   3547 O          18.0038   26.4657    7.9912 O.3     1  UNL1        0.0000
   3548 O          20.5492   34.8732    5.1176 O.3    24  UNL24       0.0000
   3549 O          27.1741   35.2063    1.0833 O.3    24  UNL24       0.0000
   3550 O          13.2268   30.7426   11.9440 O.3     1  UNL1        0.0000
   3551 O          26.4751   32.4259    1.1133 O.3    24  UNL24       0.0000
   3552 O          15.4320   32.6028   12.0151 O.2     1  UNL1        0.0000
   3553 O          22.2441   35.4892    3.0197 O.3    24  UNL24       0.0000
   3554 O          17.8279   28.3175   10.0169 O.3     1  UNL1        0.0000
   3555 O          24.7229   34.3538    0.0716 O.3    24  UNL24       0.0000
   3556 O          15.7366   30.0559   13.0448 O.3     1  UNL1        0.0000
   3557 H          18.1071   34.1391   12.3532 H      24  UNL24       0.0000
   3558 H          19.8273   32.8015   10.6060 H      24  UNL24       0.0000
   3559 C          18.9001   33.4249   12.5385 C.2    24  UNL24       0.0000
   3560 H          22.3978   32.5021   10.4885 H      24  UNL24       0.0000
   3561 C          19.7403   32.7640   11.6838 C.2    24  UNL24       0.0000
   3562 H          22.3218   41.6127    1.7375 H      24  UNL24       0.0000
   3563 N          23.5271   40.2477    0.7089 N.2    24  UNL24       0.0000
   3564 C          22.7638   31.9052   11.3334 C.3    24  UNL24       0.0000
   3565 H          23.2220   32.5764   12.0704 H      24  UNL24       0.0000
   3566 C          22.8601   40.6837    1.9401 C.3    24  UNL24       0.0000
   3567 N          20.5464   31.9453   12.4564 N.pl3  24  UNL24       0.0000
   3568 H          22.1502   39.9123    2.2624 H      24  UNL24       0.0000
   3569 H          23.5340   31.2187   10.9544 H      24  UNL24       0.0000
   3570 C          24.5253   39.3469    0.6399 C.2    24  UNL24       0.0000
   3571 C          21.6401   31.0838   11.9568 C.3    24  UNL24       0.0000
   3572 H          21.2054   30.3705   11.2434 H      24  UNL24       0.0000
   3573 H          23.6114   40.8546    2.7163 H      24  UNL24       0.0000
   3574 H          24.9826   38.8414    1.4820 H      24  UNL24       0.0000
   3575 H          21.9951   30.5058   12.8174 H      24  UNL24       0.0000
   3576 TI         10.7940   23.6299   24.3754 Ti      1  UNL1        0.0000
   3577 TI         21.4651   26.8977   14.9547 Ti      1  UNL1        0.0000
   3578 TI         15.0150   19.8409   22.5273 Ti      1  UNL1        0.0000
   3579 TI         16.1740   29.0570   16.7587 Ti      1  UNL1        0.0000
   3580 TI         15.1070   30.7018   14.8622 Ti      1  UNL1        0.0000
   3581 TI         16.9218   19.6501   24.4698 Ti      1  UNL1        0.0000
   3582 TI         11.7925   21.9304   22.4763 Ti      1  UNL1        0.0000
   3583 TI         19.4783   27.1286   16.8136 Ti      1  UNL1        0.0000
   3584 H          17.4093   23.1671   21.6937 H       1  UNL1        0.0000
   3585 H           6.6375   31.6572   19.5885 H      35  UNL35       0.0000
   3586 H          18.0939   32.5251   17.7606 H      24  UNL24       0.0000
   3587 H          11.1587   27.5424   24.1586 H       1  UNL1        0.0000
   3588 H          22.4111   23.0218   15.2654 H       1  UNL1        0.0000
   3589 H           6.8608   22.7364   24.0139 H       1  UNL1        0.0000
   3590 H          24.7765   29.0183   15.1394 H      54  UNL54       0.0000
   3591 H          18.0351   15.6525   24.0728 H       1  UNL1        0.0000
   3592 H          11.0733   29.9706   15.2060 H       1  UNL1        0.0000
   3593 H          18.3193   24.7186   19.9372 H       1  UNL1        0.0000
   3594 H          13.6171   25.1848   21.5163 H       1  UNL1        0.0000
   3595 H          26.1033   19.6862   19.4887 H      24  UNL24       0.0000
   3596 H          11.3351   21.8463   26.0944 H       1  UNL1        0.0000
   3597 H          19.5897   26.5919   13.2649 H       1  UNL1        0.0000
   3598 H          17.4238   19.0078   18.9550 H       1  UNL1        0.0000
   3599 H          14.4080   30.8286   20.3897 H       1  UNL1        0.0000
   3600 H           7.6024   25.1756   22.1477 H       1  UNL1        0.0000
   3601 H          24.3036   24.9078   17.2425 H       1  UNL1        0.0000
   3602 H           9.9338   23.8132   18.7991 H       1  UNL1        0.0000
   3603 H          11.9584   32.4178   17.2352 H       1  UNL1        0.0000
   3604 H          15.3958   33.8154   15.7198 H      55  UNL55       0.0000
   3605 H          22.3304   20.9972   16.4660 H       1  UNL1        0.0000
   3606 H          18.2690   28.8118   15.4080 H       1  UNL1        0.0000
   3607 H          13.8779   21.6490   23.8294 H       1  UNL1        0.0000
   3608 H          21.0776   21.7332   22.8387 H       1  UNL1        0.0000
   3609 H          19.6179   21.2120   23.5936 H       1  UNL1        0.0000
   3610 H          21.4908   26.1854   21.7428 H       1  UNL1        0.0000
   3611 H          20.9000   26.5259   20.1279 H       1  UNL1        0.0000
   3612 H          20.7605   16.7646   22.6444 H       1  UNL1        0.0000
   3613 H          19.4464   17.8194   23.1105 H       1  UNL1        0.0000
   3614 H          15.0738   23.4260   22.4663 H       1  UNL1        0.0000
   3615 H          14.5261   26.7415   19.7588 H       1  UNL1        0.0000
   3616 H          19.4033   30.5838   16.9556 H      24  UNL24       0.0000
   3617 H          21.6614   30.1244   17.8549 H      24  UNL24       0.0000
   3618 C          22.0846   26.1736   17.8139 C.2     1  UNL1        0.0000
   3619 C           9.8091   23.8611   21.5341 C.3     1  UNL1        0.0000
   3620 C          17.6239   18.9218   21.5868 C.3     1  UNL1        0.0000
   3621 C          14.1759   30.9578   17.7315 C.3     1  UNL1        0.0000
   3622 C          23.0067   25.5997   18.8033 C.2     1  UNL1        0.0000
   3623 C           8.8505   24.4545   20.5632 C.ar    1  UNL1        0.0000
   3624 C          18.5796   18.3417   20.6336 C.ar    1  UNL1        0.0000
   3625 C          13.2697   31.5720   18.7372 C.2     1  UNL1        0.0000
   3626 C          22.7633   25.6642   20.2112 C.3     1  UNL1        0.0000
   3627 C           9.0632   24.3438   19.1738 C.ar    1  UNL1        0.0000
   3628 C          19.7374   17.6206   21.0793 C.ar    1  UNL1        0.0000
   3629 C          12.1463   32.3069   18.2994 C.3     1  UNL1        0.0000
   3630 C          13.5376   31.4086   20.0904 C.2     1  UNL1        0.0000
   3631 C          18.3197   18.4668   19.2512 C.ar    1  UNL1        0.0000
   3632 C          24.1613   24.9411   18.3203 C.3     1  UNL1        0.0000
   3633 C           7.7297   25.1076   21.0689 C.ar    1  UNL1        0.0000
   3634 C          16.4760   25.8218   19.7498 C.ar    1  UNL1        0.0000
   3635 C          15.4644   24.0946   21.7011 C.ar    1  UNL1        0.0000
   3636 C          19.8237   31.2407   17.7154 C.2    24  UNL24       0.0000
   3637 C          11.9323   18.5697   19.6385 C.ar    1  UNL1        0.0000
   3638 C          22.3774   23.1027   13.1216 C.ar    1  UNL1        0.0000
   3639 C          15.5014   34.6619   13.1989 C.2     1  UNL1        0.0000
   3640 C          20.3465   21.7098   26.1001 C.2     1  UNL1        0.0000
   3641 C           6.9426   22.7862   26.1570 C.ar    1  UNL1        0.0000
   3642 C          17.0128   26.7389   18.7159 C.3     1  UNL1        0.0000
   3643 C          12.5174   19.4810   20.6505 C.3     1  UNL1        0.0000
   3644 C          17.8783   17.3128   26.2114 C.3     1  UNL1        0.0000
   3645 C          15.4584   33.2260   13.1600 C.2     1  UNL1        0.0000
   3646 C          19.0712   21.0481   26.1533 C.2     1  UNL1        0.0000
   3647 C           8.3298   23.2491   26.1743 C.3     1  UNL1        0.0000
   3648 C          15.1452   25.9570   20.1890 C.ar    1  UNL1        0.0000
   3649 C          16.7876   23.9512   21.2649 C.ar    1  UNL1        0.0000
   3650 C          19.0864   32.3420   18.1689 C.3    24  UNL24       0.0000
   3651 C           5.6436   31.8340   19.1837 C.2    35  UNL35       0.0000
   3652 C          22.4469   22.4339   14.3501 C.ar    1  UNL1        0.0000
   3653 C          11.1543   28.1297   25.0733 C.3     1  UNL1        0.0000
   3654 C           9.3018   29.2450   14.2205 C.ar    1  UNL1        0.0000
   3655 C           6.3110   22.5364   24.9321 C.ar    1  UNL1        0.0000
   3656 C          21.1036   30.9841   18.2230 C.2    24  UNL24       0.0000
   3657 C          26.6535   18.8198   19.1277 C.2    24  UNL24       0.0000
   3658 C          17.2950   24.8125   20.2915 C.ar    1  UNL1        0.0000
   3659 C          14.6429   25.0931   21.1632 C.ar    1  UNL1        0.0000
   3660 C          21.0241   22.0040   24.8637 C.3     1  UNL1        0.0000
   3661 C          10.5732   29.7694   14.2627 C.ar    1  UNL1        0.0000
   3662 C          18.1004   15.1260   25.0209 C.ar    1  UNL1        0.0000
   3663 C          22.5178   21.0348   14.4292 C.ar    1  UNL1        0.0000
   3664 N          22.6006   20.4368   15.6662 N.pl3   1  UNL1        0.0000
   3665 N          20.4448   21.8026   23.6277 N.3     1  UNL1        0.0000
   3666 N          21.6636   26.2718   20.7494 N.3     1  UNL1        0.0000
   3667 N          20.0810   17.4724   22.3946 N.pl3   1  UNL1        0.0000
   3668 O          20.8969   26.5371   18.1868 O.2     1  UNL1        0.0000
   3669 O          10.6084   22.9381   21.1303 O.3     1  UNL1        0.0000
   3670 O          18.0076   19.0580   22.8060 O.3     1  UNL1        0.0000
   3671 O          14.0884   31.3864   16.5329 O.3     1  UNL1        0.0000
   3672 O          14.9814   30.0275   18.1124 O.3     1  UNL1        0.0000
   3673 O          16.4391   19.2497   21.1883 O.3     1  UNL1        0.0000
   3674 O          22.4866   26.2701   16.6000 O.2     1  UNL1        0.0000
   3675 O           9.7586   24.2942   22.7347 O.3     1  UNL1        0.0000
   3676 O          19.8190   25.9235   15.6155 O.3     1  UNL1        0.0000
   3677 O          12.2944   23.5082   23.2199 O.3     1  UNL1        0.0000
   3678 O          20.6801   28.2416   16.0635 O.3     1  UNL1        0.0000
   3679 O          10.6061   21.7229   23.7199 O.3     1  UNL1        0.0000
   3680 O          15.3220   18.6772   23.7846 O.3     1  UNL1        0.0000
   3681 O          16.6318   30.6363   16.0195 O.3     1  UNL1        0.0000
   3682 O          16.1940   20.9711   23.3183 O.3     1  UNL1        0.0000
   3683 O          14.9849   28.8215   15.5092 O.3     1  UNL1        0.0000
   3684 O          18.2375   26.6021   18.3546 O.3     1  UNL1        0.0000
   3685 O          11.8262   20.4919   21.0338 O.3     1  UNL1        0.0000
   3686 O          17.7288   17.9045   25.0723 O.3     1  UNL1        0.0000
   3687 O          15.4059   32.5208   14.2546 O.2     1  UNL1        0.0000
   3688 O          18.4333   20.7189   25.0666 O.2     1  UNL1        0.0000
   3689 O          13.2349   30.6084   14.2044 O.3     1  UNL1        0.0000
   3690 O          13.6913   19.2265   21.1014 O.3     1  UNL1        0.0000
   3691 O          16.2366   27.6340   18.2279 O.3     1  UNL1        0.0000
   3692 O          22.8616   27.9671   14.1936 O.2     1  UNL1        0.0000
   3693 O           8.9142   23.5034   25.0543 O.3     1  UNL1        0.0000
   3694 O          22.1625   25.1867   14.2236 O.3     1  UNL1        0.0000
   3695 O          11.1194   25.3636   25.1254 O.2     1  UNL1        0.0000
   3696 O          17.9315   28.2500   16.1299 O.3     1  UNL1        0.0000
   3697 O          13.5154   21.0783   23.1272 O.3     1  UNL1        0.0000
   3698 O          20.4103   27.1146   13.1819 O.3     1  UNL1        0.0000
   3699 O          11.4241   22.8167   26.1551 O.3     1  UNL1        0.0000
   3700 H          13.7945   26.8999   25.4635 H      24  UNL24       0.0000
   3701 H          15.5148   25.5623   23.7162 H      24  UNL24       0.0000
   3702 C          14.5876   26.1857   25.6488 C.2    24  UNL24       0.0000
   3703 H          18.0852   25.2629   23.5988 H      24  UNL24       0.0000
   3704 C          15.4277   25.5248   24.7940 C.2    24  UNL24       0.0000
   3705 H          18.0093   34.3735   14.8478 H      24  UNL24       0.0000
   3706 N          19.2145   33.0085   13.8192 N.pl3  24  UNL24       0.0000
   3707 C          18.4513   24.6660   24.4437 C.3    24  UNL24       0.0000
   3708 H          18.9095   25.3372   25.1807 H      24  UNL24       0.0000
   3709 C          18.5476   33.4445   15.0504 C.3    24  UNL24       0.0000
   3710 N          16.2339   24.7061   25.5666 N.pl3  24  UNL24       0.0000
   3711 H          17.8377   32.6731   15.3727 H      24  UNL24       0.0000
   3712 H          19.2214   23.9795   24.0647 H      24  UNL24       0.0000
   3713 C          20.2128   32.1077   13.7501 C.3    24  UNL24       0.0000
   3714 C          17.3275   23.8446   25.0671 C.3    24  UNL24       0.0000
   3715 H          16.8928   23.1313   24.3536 H      24  UNL24       0.0000
   3716 H          19.2989   33.6154   15.8266 H      24  UNL24       0.0000
   3717 H          20.6700   31.6022   14.5923 H      24  UNL24       0.0000
   3718 H          17.6826   23.2666   25.9277 H      24  UNL24       0.0000
   3719 TI          6.4815   16.3907   37.4857 Ti      1  UNL1        0.0000
   3720 TI         17.1525   19.6585   28.0650 Ti      1  UNL1        0.0000
   3721 TI         10.7025   12.6017   35.6375 Ti      1  UNL1        0.0000
   3722 TI         11.8615   21.8178   29.8690 Ti      1  UNL1        0.0000
   3723 TI         10.7945   23.4626   27.9725 Ti      1  UNL1        0.0000
   3724 TI         12.6093   12.4109   37.5800 Ti      1  UNL1        0.0000
   3725 TI          7.4799   14.6912   35.5866 Ti      1  UNL1        0.0000
   3726 TI         15.1658   19.8894   29.9238 Ti      1  UNL1        0.0000
   3727 H          13.0968   15.9279   34.8039 H       1  UNL1        0.0000
   3728 H           2.3250   24.4180   32.6988 H      38  UNL38       0.0000
   3729 H          13.7814   25.2859   30.8709 H      24  UNL24       0.0000
   3730 H           6.8462   20.3032   37.2689 H      24  UNL24       0.0000
   3731 H          18.0986   15.7826   28.3757 H       1  UNL1        0.0000
   3732 H           2.5482   15.4972   37.1242 H       1  UNL1        0.0000
   3733 H          20.4640   21.7791   28.2496 H      56  UNL56       0.0000
   3734 H          13.7225    8.4133   37.1831 H      24  UNL24       0.0000
   3735 H           6.7608   22.7314   28.3163 H       1  UNL1        0.0000
   3736 H          14.0068   17.4794   33.0474 H       1  UNL1        0.0000
   3737 H           9.3046   17.9456   34.6266 H       1  UNL1        0.0000
   3738 H          21.7907   12.4470   32.5990 H      24  UNL24       0.0000
   3739 H           7.0226   14.6071   39.2047 H       1  UNL1        0.0000
   3740 H          15.2771   19.3527   26.3751 H       1  UNL1        0.0000
   3741 H          13.1113   11.7686   32.0653 H       1  UNL1        0.0000
   3742 H          10.0954   23.5894   33.5000 H       1  UNL1        0.0000
   3743 H           3.2899   17.9364   35.2580 H       1  UNL1        0.0000
   3744 H          19.9910   17.6686   30.3527 H       1  UNL1        0.0000
   3745 H           5.6213   16.5740   31.9094 H       1  UNL1        0.0000
   3746 H           7.6459   25.1786   30.3455 H       1  UNL1        0.0000
   3747 H          11.0832   26.5762   28.8301 H      57  UNL57       0.0000
   3748 H          18.0179   13.7580   29.5763 H       1  UNL1        0.0000
   3749 H          13.9565   21.5726   28.5183 H       1  UNL1        0.0000
   3750 H           9.5653   14.4098   36.9397 H       1  UNL1        0.0000
   3751 H          16.7650   14.4940   35.9489 H       1  UNL1        0.0000
   3752 H          15.3053   13.9728   36.7038 H       1  UNL1        0.0000
   3753 H          17.1783   18.9462   34.8530 H       1  UNL1        0.0000
   3754 H          16.5874   19.2867   33.2382 H       1  UNL1        0.0000
   3755 H          16.4479    9.5254   35.7547 H       1  UNL1        0.0000
   3756 H          15.1338   10.5802   36.2207 H       1  UNL1        0.0000
   3757 H          10.7613   16.1868   35.5766 H       1  UNL1        0.0000
   3758 H          10.2136   19.5023   32.8691 H       1  UNL1        0.0000
   3759 H          15.0908   23.3446   30.0659 H      24  UNL24       0.0000
   3760 H          17.3489   22.8852   30.9651 H      24  UNL24       0.0000
   3761 C          17.7720   18.9344   30.9242 C.2     1  UNL1        0.0000
   3762 C           5.4965   16.6219   34.6444 C.3     1  UNL1        0.0000
   3763 C          13.3114   11.6826   34.6971 C.3     1  UNL1        0.0000
   3764 C           9.8634   23.7186   30.8418 C.3     1  UNL1        0.0000
   3765 C          18.6941   18.3605   31.9136 C.2     1  UNL1        0.0000
   3766 C           4.5380   17.2153   33.6734 C.ar    1  UNL1        0.0000
   3767 C          14.2671   11.1025   33.7439 C.ar    1  UNL1        0.0000
   3768 C           8.9572   24.3328   31.8474 C.2     1  UNL1        0.0000
   3769 C          18.4508   18.4250   33.3215 C.3     1  UNL1        0.0000
   3770 C           4.7506   17.1046   32.2841 C.ar    1  UNL1        0.0000
   3771 C          15.4248   10.3814   34.1896 C.ar    1  UNL1        0.0000
   3772 C           7.8337   25.0677   31.4097 C.3     1  UNL1        0.0000
   3773 C           9.2250   24.1694   33.2006 C.2     1  UNL1        0.0000
   3774 C          14.0072   11.2276   32.3615 C.ar    1  UNL1        0.0000
   3775 C          19.8488   17.7019   31.4306 C.3     1  UNL1        0.0000
   3776 C           3.4172   17.8684   34.1792 C.ar    1  UNL1        0.0000
   3777 C          12.1635   18.5826   32.8601 C.ar    1  UNL1        0.0000
   3778 C          11.1519   16.8554   34.8114 C.ar    1  UNL1        0.0000
   3779 C          15.5112   24.0015   30.8257 C.2    24  UNL24       0.0000
   3780 C           7.6198   11.3305   32.7488 C.ar    1  UNL1        0.0000
   3781 C          18.0649   15.8635   26.2319 C.ar    1  UNL1        0.0000
   3782 C          11.1889   27.4227   26.3092 C.2     1  UNL1        0.0000
   3783 C          16.0339   14.4706   39.2104 C.2     1  UNL1        0.0000
   3784 C           2.6301   15.5470   39.2673 C.2     1  UNL1        0.0000
   3785 C          12.7003   19.4997   31.8261 C.3     1  UNL1        0.0000
   3786 C           8.2048   12.2418   33.7608 C.3     1  UNL1        0.0000
   3787 C          13.5658   10.0736   39.3217 C.3     1  UNL1        0.0000
   3788 C          11.1459   25.9868   26.2702 C.2     1  UNL1        0.0000
   3789 C          14.7586   13.8089   39.2636 C.2     1  UNL1        0.0000
   3790 C           4.0172   16.0099   39.2845 C.2     1  UNL1        0.0000
   3791 C          10.8327   18.7178   33.2993 C.ar    1  UNL1        0.0000
   3792 C          12.4750   16.7120   34.3751 C.ar    1  UNL1        0.0000
   3793 C          14.7738   25.1028   31.2792 C.3    24  UNL24       0.0000
   3794 C           1.3310   24.5948   32.2939 C.2    38  UNL38       0.0000
   3795 C          18.1344   15.1947   27.4604 C.ar    1  UNL1        0.0000
   3796 C           6.8417   20.8905   38.1835 C.3    58  UNL58       0.0000
   3797 C           4.9893   22.0058   27.3308 C.ar    1  UNL1        0.0000
   3798 C           1.9985   15.2972   38.0424 C.2     1  UNL1        0.0000
   3799 C          16.7911   23.7449   31.3332 C.2    24  UNL24       0.0000
   3800 C          22.3410   11.5806   32.2379 C.2    24  UNL24       0.0000
   3801 C          12.9824   17.5732   33.4017 C.ar    1  UNL1        0.0000
   3802 C          10.3304   17.8539   34.2734 C.ar    1  UNL1        0.0000
   3803 C          16.7115   14.7648   37.9739 C.3     1  UNL1        0.0000
   3804 C           6.2607   22.5302   27.3730 C.ar    1  UNL1        0.0000
   3805 C          13.7878    7.8867   38.1312 C.2    24  UNL24       0.0000
   3806 C          18.2053   13.7956   27.5394 C.ar    1  UNL1        0.0000
   3807 N          18.2881   13.1976   28.7764 N.pl3   1  UNL1        0.0000
   3808 N          16.1323   14.5634   36.7380 N.3     1  UNL1        0.0000
   3809 N          17.3510   19.0326   33.8596 N.3     1  UNL1        0.0000
   3810 N          15.7685   10.2332   35.5049 N.pl3   1  UNL1        0.0000
   3811 O          16.5844   19.2979   31.2971 O.2     1  UNL1        0.0000
   3812 O           6.2959   15.6989   34.2406 O.3     1  UNL1        0.0000
   3813 O          13.6951   11.8188   35.9163 O.3     1  UNL1        0.0000
   3814 O           9.7759   24.1472   29.6432 O.3     1  UNL1        0.0000
   3815 O          10.6688   22.7883   31.2227 O.3     1  UNL1        0.0000
   3816 O          12.1266   12.0105   34.2986 O.3     1  UNL1        0.0000
   3817 O          18.1741   19.0309   29.7103 O.2     1  UNL1        0.0000
   3818 O           5.4461   17.0550   35.8450 O.3     1  UNL1        0.0000
   3819 O          15.5065   18.6843   28.7258 O.3     1  UNL1        0.0000
   3820 O           7.9819   16.2690   36.3302 O.3     1  UNL1        0.0000
   3821 O          16.3676   21.0024   29.1737 O.3     1  UNL1        0.0000
   3822 O           6.2936   14.4837   36.8302 O.3     1  UNL1        0.0000
   3823 O          11.0095   11.4380   36.8949 O.3     1  UNL1        0.0000
   3824 O          12.3192   23.3971   29.1298 O.3     1  UNL1        0.0000
   3825 O          11.8815   13.7319   36.4286 O.3     1  UNL1        0.0000
   3826 O          10.6723   21.5822   28.6194 O.3     1  UNL1        0.0000
   3827 O          13.9249   19.3629   31.4649 O.3     1  UNL1        0.0000
   3828 O           7.5137   13.2527   34.1441 O.3     1  UNL1        0.0000
   3829 O          13.4162   10.6653   38.1826 O.3     1  UNL1        0.0000
   3830 O          11.0933   25.2816   27.3649 O.2     1  UNL1        0.0000
   3831 O          14.1208   13.4797   38.1769 O.2     1  UNL1        0.0000
   3832 O           8.9224   23.3692   27.3147 O.3     1  UNL1        0.0000
   3833 O           9.3788   11.9873   34.2117 O.3     1  UNL1        0.0000
   3834 O          11.9241   20.3948   31.3382 O.3     1  UNL1        0.0000
   3835 O          18.5490   20.7279   27.3039 O.2     1  UNL1        0.0000
   3836 O           4.6017   16.2642   38.1645 O.2     1  UNL1        0.0000
   3837 O          17.8500   17.9475   27.3338 O.3     1  UNL1        0.0000
   3838 O           6.8069   18.1244   38.2357 O.3     1  UNL1        0.0000
   3839 O          13.6190   21.0108   29.2402 O.3     1  UNL1        0.0000
   3840 O           9.2028   13.8391   36.2375 O.3     1  UNL1        0.0000
   3841 O          16.0978   19.8754   26.2921 O.3     1  UNL1        0.0000
   3842 O           7.1116   15.5775   39.2653 O.3     1  UNL1        0.0000
   3843 H           9.4820   19.6607   38.5738 H      24  UNL24       0.0000
   3844 H          11.2022   18.3231   36.8265 H      24  UNL24       0.0000
   3845 C          10.2751   18.9465   38.7591 C.2    24  UNL24       0.0000
   3846 H          13.7727   18.0237   36.7090 H      24  UNL24       0.0000
   3847 C          11.1152   18.2856   37.9043 C.2    24  UNL24       0.0000
   3848 H          13.6968   27.1343   27.9581 H      24  UNL24       0.0000
   3849 N          14.9020   25.7693   26.9294 N.pl3  24  UNL24       0.0000
   3850 C          14.1388   17.4268   37.5540 C.3    24  UNL24       0.0000
   3851 H          14.5969   18.0980   38.2909 H      24  UNL24       0.0000
   3852 C          14.2350   26.2053   28.1606 C.3    24  UNL24       0.0000
   3853 N          11.9213   17.4669   38.6769 N.pl3  24  UNL24       0.0000
   3854 H          13.5251   25.4339   28.4830 H      24  UNL24       0.0000
   3855 H          14.9089   16.7403   37.1749 H      24  UNL24       0.0000
   3856 C          15.9003   24.8685   26.8604 C.3    24  UNL24       0.0000
   3857 C          13.0150   16.6054   38.1774 C.3    24  UNL24       0.0000
   3858 H          12.5803   15.8920   37.4639 H      24  UNL24       0.0000
   3859 H          14.9863   26.3762   28.9369 H      24  UNL24       0.0000
   3860 H          16.3575   24.3630   27.7026 H      24  UNL24       0.0000
   3861 H          13.3700   16.0274   39.0380 H      24  UNL24       0.0000
@<TRIPOS>BOND
     1  1350  1364    1
     2   492   506    1
     3  1779  1793    1
     4  2637  2651    1
     5  3495  3509    1
     6  2208  2222    1
     7  3066  3080    1
     8   921   935    1
     9    63    77    1
    10  1357  1351    2
    11  1357  1399    1
    12   499   493    2
    13   499   541    1
    14    70    64    2
    15    70   112    1
    16  3073  3067    2
    17  3073  3115    1
    18   928   922    1
    19   928   970    1
    20  2215  2209    1
    21  2215  2257    1
    22  2644  2638    2
    23  2644  2686    1
    24  1786  1780    2
    25  1786  1828    1
    26  3502  3496    1
    27  3502  3544    1
    28   552   451    1
    29   552   431    1
    30  3126  3025    1
    31  3126  3005    1
    32  2268  2167    1
    33  2268  2147    1
    34  1410  1309    1
    35  1410  1289    1
    36  1839  1738    1
    37  1839  1718    1
    38  3555  3454    1
    39  3555  3434    1
    40  2697  2596    1
    41  2697  2576    1
    42   981   880    1
    43   981   860    1
    44   123    22    1
    45   123     2    1
    46  1351  1804    1
    47  3067  3520    1
    48    64   517    1
    49  1780  2233    1
    50   493   946    1
    51  2638  3091    1
    52   567   560    2
    53   567   571    1
    54  3570  3563    2
    55  3570  3574    1
    56  1425  1418    2
    57  1425  1429    1
    58  2712  2705    2
    59  2712  2716    1
    60  2283  2276    2
    61  2283  2287    1
    62  3141  3134    2
    63  3141  3145    1
    64   996   989    2
    65   996  1000    1
    66   138   131    2
    67   138   142    1
    68  1854  1847    2
    69  1854  1858    1
    70  2705  2708    1
    71  2276  2279    1
    72  3563  3566    1
    73   989   992    1
    74  1418  1421    1
    75   131   134    1
    76  3134  3137    1
    77  1847  1850    1
    78   560   563    1
    79   546   431    1
    80  1404  1289    1
    81  3549  3434    1
    82  1833  1718    1
    83   975   860    1
    84  3120  3005    1
    85   117     2    1
    86  2691  2576    1
    87  2262  2147    1
    88   972   863    1
    89  3117  3008    1
    90  2688  2579    1
    91   114     5    1
    92  2259  2150    1
    93  1830  1721    1
    94  3546  3437    1
    95  1401  1292    1
    96   543   434    1
    97   508   515    2
    98  2224  2231    2
    99  2224   873    1
   100  1366  1373    2
   101  1366    15    1
   102  1795  1802    2
   103  1795   444    1
   104  2653  2660    2
   105  2653  1302    1
   106  3511  3518    2
   107  3511  2160    1
   108   937   944    2
   109  3082  3089    2
   110  3082  1731    1
   111    79    86    2
   112  1406  1289    1
   113   119     2    1
   114  3122  3005    1
   115   977   860    1
   116  2693  2576    1
   117  2264  2147    1
   118   548   431    1
   119  3551  3434    1
   120  1835  1718    1
   121  2257  2150    1
   122  1828  1721    1
   123   541   434    1
   124   970   863    1
   125  3115  3008    1
   126  2686  2579    1
   127  3544  3437    1
   128  1399  1292    1
   129   112     5    1
   130  3089  3020    1
   131  1802  1733    1
   132   944   875    1
   133    86    17    1
   134  2231  2162    1
   135  1373  1304    1
   136  2660  2591    1
   137  3518  3449    1
   138   515   446    1
   139  2651  2662    2
   140  2651  2587    1
   141  3080  3091    2
   142  3080  3016    1
   143  3509  3520    2
   144  3509  3445    1
   145  2222  2233    2
   146  2222  2158    1
   147    77    88    2
   148    77    13    1
   149  1364  1375    2
   150  1364  1300    1
   151  1793  1804    2
   152  1793  1729    1
   153   935   946    2
   154   935   871    1
   155   506   517    2
   156   506   442    1
   157  1804  1805    1
   158    88    89    1
   159  1375  1376    1
   160   517   518    1
   161  2233  2234    1
   162  3520  3521    1
   163  2662  2663    1
   164  3091  3092    1
   165   946   947    1
   166  3133  3137    1
   167  2704  2708    1
   168  2275  2279    1
   169  1846  1850    1
   170   559   563    1
   171  1417  1421    1
   172  3562  3566    1
   173   988   992    1
   174   130   134    1
   175  3008  3111    1
   176  3008  3109    1
   177  3008  3099    1
   178  1292  1395    1
   179  1292  1393    1
   180  1292  1383    1
   181  2579  2682    1
   182  2579  2680    1
   183  2579  2670    1
   184  1721  1824    1
   185  1721  1822    1
   186  1721  1812    1
   187   434   537    1
   188   434   535    1
   189   434   525    1
   190   863   966    1
   191   863   964    1
   192   863   954    1
   193     5   108    1
   194     5   106    1
   195     5    96    1
   196  2150  2253    1
   197  2150  2251    1
   198  2150  2241    1
   199  3437  3540    1
   200  3437  3538    1
   201  3437  3528    1
   202     2   101    1
   203     2   103    1
   204     2    99    1
   205  2576  2675    1
   206  2576  2677    1
   207  2576  2673    1
   208   431   530    1
   209   431   532    1
   210   431   528    1
   211  2147  2246    1
   212  2147  2248    1
   213  2147  2244    1
   214  1718  1817    1
   215  1718  1819    1
   216  1718  1815    1
   217  3005  3104    1
   218  3005  3106    1
   219  3005  3102    1
   220  1289  1388    1
   221  1289  1390    1
   222  1289  1386    1
   223   860   959    1
   224   860   961    1
   225   860   957    1
   226  3434  3533    1
   227  3434  3535    1
   228  3434  3531    1
   229  2279  2281    1
   230  2279  2286    1
   231  2708  2710    1
   232  2708  2715    1
   233  1850  1852    1
   234  1850  1857    1
   235   992   994    1
   236   992   999    1
   237   563   565    1
   238   563   570    1
   239  3566  3568    1
   240  3566  3573    1
   241  3137  3139    1
   242  3137  3144    1
   243   134   136    1
   244   134   141    1
   245  1421  1423    1
   246  1421  1428    1
   247  3463  3553    1
   248  2176  2266    1
   249    31   121    1
   250  1318  1408    1
   251   460   550    1
   252  3034  3124    1
   253   889   979    1
   254  2605  2695    1
   255  1747  1837    1
   256   537   433    1
   257  3111  3007    1
   258  3540  3436    1
   259  1824  1720    1
   260  1395  1291    1
   261  2253  2149    1
   262   108     4    1
   263  2682  2578    1
   264   966   862    1
   265  2675  2582    1
   266   101     8    1
   267  1817  1724    1
   268  2246  2153    1
   269  1388  1295    1
   270  3533  3440    1
   271   530   437    1
   272   959   866    1
   273  3104  3011    1
   274    89    30    1
   275  2234  1745    1
   276  2234  2175    1
   277  3521  3032    1
   278  3521  3462    1
   279  3092  2603    1
   280  3092  3033    1
   281  2663  2604    1
   282   518    29    1
   283   518   459    1
   284  1376  1317    1
   285   947   458    1
   286   947   888    1
   287  1805  1316    1
   288  1805  1746    1
   289   964   862    1
   290  2251  2149    1
   291  1822  1720    1
   292   535   433    1
   293  3109  3007    1
   294  1393  1291    1
   295  2680  2578    1
   296   106     4    1
   297  3538  3436    1
   298   532   437    1
   299  3535  3440    1
   300  2248  2153    1
   301   103     8    1
   302  3106  3011    1
   303  2677  2582    1
   304  1819  1724    1
   305  1390  1295    1
   306   961   866    1
   307   550   437    1
   308   121     8    1
   309  3553  3440    1
   310   979   866    1
   311  2266  2153    1
   312  2695  2582    1
   313  1837  1724    1
   314  3124  3011    1
   315  1408  1295    1
   316  2241  2191    1
   317  1812  1762    1
   318    96    46    1
   319   525   475    1
   320   954   904    1
   321  2670  2620    1
   322  3528  3478    1
   323  1383  1333    1
   324  3099  3049    1
   325  3102  3046    1
   326    99    43    1
   327   528   472    1
   328  2244  2188    1
   329  2673  2617    1
   330   957   901    1
   331  3531  3475    1
   332  1386  1330    1
   333  1815  1759    1
   334  1720  1813    1
   335  1720  1832    1
   336     4    97    1
   337     4   116    1
   338   862   955    1
   339   862   974    1
   340  1291  1384    1
   341  1291  1403    1
   342  2149  2242    1
   343  2149  2261    1
   344  3436  3529    1
   345  3436  3548    1
   346   433   526    1
   347   433   545    1
   348  2578  2671    1
   349  2578  2690    1
   350  3007  3100    1
   351  3007  3119    1
   352  1724  1809    1
   353  1724  1825    1
   354  2582  2667    1
   355  2582  2683    1
   356   866   951    1
   357   866   967    1
   358   437   522    1
   359   437   538    1
   360     8    93    1
   361     8   109    1
   362  3011  3096    1
   363  3011  3112    1
   364  1295  1380    1
   365  1295  1396    1
   366  2153  2238    1
   367  2153  2254    1
   368  3440  3525    1
   369  3440  3541    1
   370  2615  2635    1
   371  3473  3493    1
   372   899   919    1
   373  2186  2206    1
   374    41    61    1
   375  3044  3064    1
   376   470   490    1
   377  1757  1777    1
   378  1328  1348    1
   379  1315  1341    1
   380  1744  1770    1
   381  3031  3057    1
   382   457   483    1
   383  3460  3486    1
   384    28    54    1
   385  2602  2628    1
   386   886   912    1
   387  2173  2199    1
   388  2600  2631    1
   389  2171  2202    1
   390  3029  3060    1
   391  1742  1773    1
   392  3458  3489    1
   393    26    57    1
   394   884   915    1
   395  1313  1344    1
   396   455   486    1
   397   490   504   ar
   398   490   510   ar
   399  1348  1362   ar
   400  1348  1368   ar
   401   919   933    2
   402   919   939    1
   403  2635  2649    1
   404  2635  2655    2
   405  3064  3078    1
   406  3064  3084    2
   407  1777  1791   ar
   408  1777  1797   ar
   409  3493  3507    1
   410  3493  3513    2
   411    61    75   ar
   412    61    81   ar
   413  2206  2220    2
   414  2206  2226    1
   415  1762  1813    1
   416  1762  1766    1
   417  2191  2242    1
   418  2191  2195    1
   419  3478  3529    1
   420  3478  3482    1
   421  3049  3100    1
   422  3049  3053    1
   423   904   955    1
   424   904   908    1
   425    46    97    1
   426    46    50    1
   427   475   526    1
   428   475   479    1
   429  1333  1384    1
   430  1333  1337    1
   431  2620  2671    1
   432  2620  2624    1
   433  2585  2649    1
   434    11    75    1
   435   440   504    1
   436  2156  2220    1
   437  1298  1362    1
   438  3443  3507    1
   439  1727  1791    1
   440  3014  3078    1
   441   869   933    1
   442    43    93    1
   443    43    47    1
   444  3475  3525    1
   445  3475  3479    2
   446  2617  2667    1
   447  2617  2621    2
   448  1330  1380    1
   449  1330  1334    1
   450  3046  3096    1
   451  3046  3050    2
   452   472   522    1
   453   472   476    1
   454  1759  1809    1
   455  1759  1763    1
   456   901   951    1
   457   901   905    1
   458  2188  2238    1
   459  2188  2192    1
   460  1758  1797    1
   461   900   939    1
   462    42    81    1
   463  2187  2226    1
   464  2616  2655    1
   465  1329  1368    1
   466  3474  3513    1
   467   471   510    1
   468  3045  3084    1
   469  1362  1798   ar
   470  1791  2227   ar
   471  2649  3085    2
   472  3078  3514    2
   473   504   940   ar
   474    75   511   ar
   475  1368  2650   ar
   476  1797  3079   ar
   477   939  2221    2
   478   510  1792   ar
   479  2226  3508    2
   480    81  1363   ar
   481   545   496    1
   482   974   925    1
   483   116    67    1
   484  2690  2641    1
   485  2261  2212    1
   486  1832  1783    1
   487  3119  3070    1
   488  1403  1354    1
   489  3548  3499    1
   490   912   908    1
   491    54    50   ar
   492    54   485   ar
   493   483   479   ar
   494   483   914   ar
   495  1770  1766   ar
   496  1770  2201   ar
   497  3057  3053   ar
   498  3057  3488   ar
   499  2628  2624   ar
   500  2628  3059   ar
   501  1341  1337   ar
   502  1341  1772   ar
   503  3486  3482    1
   504  2199  2195    1
   505  2631  2621    1
   506  3060  3050    1
   507   915   905   ar
   508   915  2197   ar
   509   486   476   ar
   510   486  1768   ar
   511  1344  1334   ar
   512  1344  2626   ar
   513  3489  3479    1
   514  2202  2192   ar
   515  2202  3484   ar
   516    57    47   ar
   517    57  1339   ar
   518  1773  1763   ar
   519  1773  3055   ar
   520  1396  1354    1
   521  3541  3499    1
   522   967   925    1
   523   109    67    1
   524  2254  2212    1
   525   538   496    1
   526  2683  2641    1
   527  1825  1783    1
   528  3112  3070    1
   529  2212  2204    1
   530  3499  3491    1
   531  1783  1775    1
   532    67    59    1
   533  3070  3062    1
   534   496   488    1
   535  1354  1346    1
   536  2641  2633    1
   537   925   917    1
   538   479   484   ar
   539  1337  1342   ar
   540  2195  2200    2
   541  1766  1771   ar
   542    50    55   ar
   543  3482  3487    2
   544  2624  2629   ar
   545   908   913    2
   546  3053  3058   ar
   547  3459  3484    1
   548  1743  1768    1
   549  1314  1339    1
   550   456   481    1
   551    27    52    1
   552   885   910    1
   553  2172  2197    1
   554  3030  3055    1
   555  2601  2626    1
   556    47    51   ar
   557  1334  1338   ar
   558  3479  3483    1
   559  1763  1767   ar
   560   476   480   ar
   561  2621  2625    1
   562   905   909   ar
   563  3050  3054    1
   564  2192  2196   ar
   565    23    56    1
   566  2597  2630    1
   567   881   914    1
   568  1310  1343    1
   569  3026  3059    1
   570  3455  3488    1
   571   452   485    1
   572  2168  2201    1
   573  1739  1772    1
   574  1369  1307    1
   575  1369  2636    1
   576  2227  2165    1
   577  2227  3494   ar
   578    82    20    1
   579    82  1349    1
   580   511   449    1
   581   511  1778   ar
   582  3514  3452    1
   583   940   878    1
   584   940  2207   ar
   585  2656  2594    1
   586  3085  3023    1
   587  1798  1736    1
   588  1798  3065   ar
   589  1768  1764   ar
   590  2197  2193   ar
   591  1339  1335   ar
   592  3055  3051   ar
   593   481   477    1
   594  2626  2622   ar
   595    52    48    1
   596  3484  3480   ar
   597   910   906    1
   598  3079  3013    1
   599  3079  3494   ar
   600  1363  1297    1
   601  1363  1778   ar
   602  3508  3442    1
   603  2221  2155    1
   604  1792  1726    1
   605  1792  2207   ar
   606   505   439    1
   607   505   920    1
   608  2650  2584    1
   609  2650  3065   ar
   610   934   868    1
   611    76    10    1
   612    76   491    1
   613  3488  3481   ar
   614  3059  3052   ar
   615   914   907   ar
   616  1772  1765   ar
   617  2201  2194   ar
   618    56    49    1
   619  1343  1336    1
   620  2630  2623    1
   621   485   478   ar
   622  2207  2213    1
   623   491   497    2
   624  3494  3500    1
   625    62    68    1
   626  1778  1784    1
   627  1349  1355    2
   628   920   926    2
   629  3065  3071    1
   630  2636  2642    2
   631  1775  1789   ar
   632  1775  1799   ar
   633  1346  1360   ar
   634  1346  1370   ar
   635   488   502   ar
   636   488   512   ar
   637   917   931   ar
   638   917   941   ar
   639    59    73   ar
   640    59    83   ar
   641  2633  2647   ar
   642  2633  2657   ar
   643  3491  3505   ar
   644  3491  3515   ar
   645  2204  2218   ar
   646  2204  2228   ar
   647  3062  3076   ar
   648  3062  3086   ar
   649    40    73    1
   650  1327  1360    1
   651  3043  3076    1
   652  2614  2647    1
   653  1756  1789    1
   654   469   502    1
   655  2185  2218    1
   656   898   931    1
   657  3472  3505    1
   658  3450  3515    1
   659  2163  2228    1
   660    18    83    1
   661  1305  1370    1
   662   876   941    1
   663  1734  1799    1
   664   447   512    1
   665  3021  3086    1
   666  2592  2657    1
   667   913   882    1
   668  1771  1740    1
   669  1771  2198   ar
   670  2200  2169    1
   671  2629  2598    1
   672  2629  3056   ar
   673  3058  3027    1
   674  3058  3485   ar
   675  3487  3456    1
   676  1342  1311    1
   677  1342  1769   ar
   678   484   453    1
   679   484   911   ar
   680    55    24    1
   681    55   482   ar
   682  2181  2236    1
   683  1323  1378    1
   684   894   949    1
   685  3468  3523    1
   686  3039  3094    1
   687  2610  2665    1
   688  1752  1807    1
   689   465   520    1
   690    36    91    1
   691   931   942   ar
   692  2647  2658   ar
   693   502   513   ar
   694  1360  1371   ar
   695  1789  1800   ar
   696    73    84   ar
   697  3076  3087   ar
   698  2218  2229   ar
   699  3505  3516   ar
   700  1767  1807    1
   701  1767  3061   ar
   702    51    91    1
   703    51  1345   ar
   704  2196  2236    1
   705  2196  3490   ar
   706  3483  3523    1
   707  1338  1378    1
   708  1338  2632   ar
   709  2625  2665    1
   710  3054  3094    1
   711   480   520    1
   712   480  1774   ar
   713   909   949    1
   714   909  2203   ar
   715  1799  1790   ar
   716  2657  2648   ar
   717   941   932   ar
   718   512   503   ar
   719  3515  3506   ar
   720  1370  1361   ar
   721  2228  2219   ar
   722    83    74   ar
   723  3086  3077   ar
   724  2193  2203   ar
   725  2193  2189    1
   726   906   916    2
   727   906   902    1
   728  3480  3490   ar
   729  3480  3476    1
   730  1335  1345   ar
   731  1335  1331    1
   732    48    58    2
   733    48    44    1
   734   477   487    2
   735   477   473    1
   736  2622  2632   ar
   737  2622  2618    1
   738  1764  1774   ar
   739  1764  1760    1
   740  3051  3061   ar
   741  3051  3047    1
   742    49    53    2
   743    49    45    1
   744  3481  3485   ar
   745  3481  3477    1
   746   478   482   ar
   747   478   474    1
   748  2194  2198   ar
   749  2194  2190    1
   750  1765  1769   ar
   751  1765  1761    1
   752  2623  2627    2
   753  2623  2619    1
   754  3052  3056   ar
   755  3052  3048    1
   756  1336  1340    2
   757  1336  1332    1
   758   907   911   ar
   759   907   903    1
   760    68   110    1
   761    68   115    1
   762  3500  3542    1
   763  3500  3547    1
   764  1784  1826    1
   765  1784  1831    1
   766  3071  3113    1
   767  3071  3118    1
   768  2642  2684    1
   769  2642  2689    1
   770   497   539    1
   771   497   544    1
   772  2213  2255    1
   773  2213  2260    1
   774   926   968    1
   775   926   973    1
   776  1355  1397    1
   777  1355  1402    1
   778  1807  1751    1
   779   949   893    1
   780   520   464    1
   781  2665  2609    1
   782  1378  1322    1
   783  3523  3467    1
   784  2236  2180    1
   785    91    35    1
   786  3094  3038    1
   787   539   436    1
   788   110     7    1
   789  1397  1294    1
   790   968   865    1
   791  1826  1723    1
   792  2255  2152    1
   793  2684  2581    1
   794  3542  3439    1
   795  3113  3010    1
   796  1345  1312    1
   797  2203  2170    1
   798   487   454    1
   799   916   883    1
   800  2632  2599    1
   801  1774  1741    1
   802  3490  3457    1
   803  3061  3028    1
   804    58    25    1
   805  3485  3524    1
   806   482   521    1
   807   911   950    1
   808    53    92    1
   809  1769  1808    1
   810  3056  3095    1
   811  1340  1379    1
   812  2627  2666    1
   813  2198  2237    1
   814  3118  3006    1
   815  1402  1290    1
   816  2260  2148    1
   817   544   432    1
   818  1831  1719    1
   819   115     3    1
   820  3547  3435    1
   821  2689  2577    1
   822   973   861    1
   823  2668  2618    1
   824  2668  2581    1
   825  1810  1760    1
   826  1810  1723    1
   827  3526  3476    1
   828  3526  3439    1
   829  1381  1331    1
   830  1381  1294    1
   831  3097  3047    1
   832  3097  3010    1
   833    94    44    1
   834    94     7    1
   835   523   473    1
   836   523   436    1
   837  2239  2189    1
   838  2239  2152    1
   839   952   902    1
   840   952   865    1
   841   513   448    1
   842   513   489   ar
   843  1800  1735    1
   844  1800  1776   ar
   845   942   877    1
   846   942   918   ar
   847  3516  3451    1
   848  3516  3492   ar
   849    84    19    1
   850    84    60   ar
   851  1371  1306    1
   852  1371  1347   ar
   853  2229  2164    1
   854  2229  2205   ar
   855  2658  2593    1
   856  2658  2634   ar
   857  3087  3022    1
   858  3087  3063   ar
   859  1814  1761    1
   860  1814  1719    1
   861  2243  2190    1
   862  2243  2148    1
   863  2672  2619    1
   864  2672  2577    1
   865    98    45    1
   866    98     3    1
   867  3101  3048    1
   868  3101  3006    1
   869   527   474    1
   870   527   432    1
   871  3530  3477    1
   872  3530  3435    1
   873   956   903    1
   874   956   861    1
   875  1385  1332    1
   876  1385  1290    1
   877  1361  1296    1
   878  1361  1347   ar
   879    74     9    1
   880    74    60   ar
   881  2648  2583    1
   882  2648  2634   ar
   883  1790  1725    1
   884  1790  1776   ar
   885   932   867    1
   886   932   918   ar
   887  2219  2154    1
   888  2219  2205   ar
   889   503   438    1
   890   503   489   ar
   891  3077  3012    1
   892  3077  3063   ar
   893  3506  3441    1
   894  3506  3492   ar
   895  3476  3532    1
   896   473   529    1
   897  3047  3103    1
   898  1331  1387    1
   899  2618  2674    1
   900  1760  1816    1
   901  2189  2245    1
   902   902   958    1
   903    44   100    1
   904  3477  3527    1
   905   903   953    1
   906  1761  1811    1
   907    45    95    1
   908  3048  3098    1
   909  1332  1382    1
   910  2619  2669    1
   911   474   524    1
   912  2190  2240    1
   913  3063  3042    1
   914  1776  1755    1
   915    60    39    1
   916  2634  2613    1
   917   489   468    1
   918  1347  1326    1
   919  3492  3471    1
   920  2205  2184    1
   921   918   897    1
   922    92    37    1
   923    92    38    1
   924  3524  3469    1
   925  3524  3470    1
   926  1808  1753    1
   927  1808  1754    1
   928  2666  2611    1
   929  2666  2612    1
   930  1379  1324    1
   931  1379  1325    1
   932  3095  3040    1
   933  3095  3041    1
   934  2237  2182    1
   935  2237  2183    1
   936   950   895    1
   937   950   896    1
   938   521   466    1
   939   521   467    1
   940  1294  1409    1
   941  1294  1389    1
   942  1294  1391    1
   943     7   122    1
   944     7   102    1
   945     7   104    1
   946   436   551    1
   947   436   531    1
   948   436   533    1
   949  2581  2696    1
   950  2581  2676    1
   951  2581  2678    1
   952  2152  2267    1
   953  2152  2247    1
   954  2152  2249    1
   955  3439  3554    1
   956  3439  3534    1
   957  3439  3536    1
   958   865   980    1
   959   865   960    1
   960   865   962    1
   961  3010  3125    1
   962  3010  3105    1
   963  3010  3107    1
   964  1723  1838    1
   965  1723  1818    1
   966  1723  1820    1
   967  1290  1394    1
   968  1290  1392    1
   969  2577  2681    1
   970  2577  2679    1
   971     3   107    1
   972     3   105    1
   973  2148  2252    1
   974  2148  2250    1
   975  1719  1823    1
   976  1719  1821    1
   977   861   965    1
   978   861   963    1
   979  3006  3110    1
   980  3006  3108    1
   981   432   536    1
   982   432   534    1
   983  3435  3539    1
   984  3435  3537    1
   985   958   859    1
   986  3532  3433    1
   987  2674  2575    1
   988   100     1    1
   989  3103  3004    1
   990  1387  1288    1
   991  2245  2146    1
   992  1816  1717    1
   993   529   430    1
   994  2240  2151    1
   995  3098  3009    1
   996  1382  1293    1
   997  3527  3438    1
   998  1811  1722    1
   999   524   435    1
  1000   953   864    1
  1001  2669  2580    1
  1002    95     6    1
  1003  1749  1806    1
  1004   462   519    1
  1005  3036  3093    1
  1006    33    90    1
  1007  2178  2235    1
  1008  1320  1377    1
  1009  2607  2664    1
  1010  3465  3522    1
  1011   891   948    1
  1012  1409  1319    1
  1013  3125  3035    1
  1014   980   890    1
  1015  2267  2177    1
  1016   551   461    1
  1017  3554  3464    1
  1018   122    32    1
  1019  2696  2606    1
  1020  1838  1748    1
  1021   102     1    1
  1022  1818  1717    1
  1023  3105  3004    1
  1024  2676  2575    1
  1025  2247  2146    1
  1026   960   859    1
  1027   531   430    1
  1028  1389  1288    1
  1029  3534  3433    1
  1030  1394  1293    1
  1031  3110  3009    1
  1032  2681  2580    1
  1033   965   864    1
  1034   107     6    1
  1035   536   435    1
  1036  2252  2151    1
  1037  3539  3438    1
  1038  1823  1722    1
  1039  1750  1806    1
  1040  2179  2235    1
  1041   892   948    1
  1042   463   519    1
  1043  2608  2664    1
  1044  3466  3522    1
  1045  1321  1377    1
  1046    34    90    1
  1047  3037  3093    1
  1048  1844  1848    1
  1049   128   132    1
  1050   986   990    1
  1051   557   561    1
  1052  3131  3135    1
  1053  2273  2277    1
  1054  3560  3564    1
  1055  2702  2706    1
  1056  1415  1419    1
  1057  3522  3517    1
  1058  2235  2230    1
  1059  1377  1372    1
  1060   948   943    1
  1061  2664  2659    1
  1062  1806  1801    1
  1063   519   514    1
  1064    90    85    1
  1065  3093  3088    1
  1066  2700  2703    1
  1067  3129  3132    1
  1068  1842  1845    1
  1069   984   987    1
  1070  2271  2274    1
  1071   126   129    1
  1072  1413  1416    1
  1073  3558  3561    1
  1074   555   558    1
  1075  1391  1288    1
  1076  3107  3004    1
  1077   104     1    1
  1078  1820  1717    1
  1079  3536  3433    1
  1080   533   430    1
  1081  2678  2575    1
  1082  2249  2146    1
  1083   962   859    1
  1084  2679  2580    1
  1085   105     6    1
  1086  2250  2151    1
  1087   534   435    1
  1088  3108  3009    1
  1089  3537  3438    1
  1090   963   864    1
  1091  1821  1722    1
  1092  1392  1293    1
  1093  2159  2225    1
  1094  3017  3083    1
  1095  1730  1796    1
  1096  1301  1367    1
  1097   872   938    1
  1098  2588  2654    1
  1099   443   509    1
  1100  3446  3512    1
  1101    14    80    1
  1102  2282  2277    1
  1103  3569  3564    1
  1104  2711  2706    1
  1105  1424  1419    1
  1106   137   132    1
  1107   566   561    1
  1108  3140  3135    1
  1109   995   990    1
  1110  1853  1848    1
  1111  1303  1374    1
  1112   874   945    1
  1113  3448  3519    1
  1114  2590  2661    1
  1115  3019  3090    1
  1116  2161  2232    1
  1117   445   516    1
  1118  1732  1803    1
  1119    16    87    1
  1120  3015  3081    1
  1121   870   936    1
  1122  2586  2652    1
  1123  2157  2223    1
  1124  3444  3510    1
  1125   441   507    1
  1126  1299  1365    1
  1127  1728  1794    1
  1128    12    78    1
  1129  1856  1855    1
  1130  2714  2713    1
  1131  3143  3142    1
  1132  1427  1426    1
  1133   140   139    1
  1134   998   997    1
  1135  3572  3571    1
  1136  2285  2284    1
  1137   569   568    1
  1138  3004  3121    1
  1139  3004  3123    1
  1140  1717  1834    1
  1141  1717  1836    1
  1142  1288  1405    1
  1143  1288  1407    1
  1144     1   118    1
  1145     1   120    1
  1146  2146  2263    1
  1147  2146  2265    1
  1148  2575  2692    1
  1149  2575  2694    1
  1150   430   547    1
  1151   430   549    1
  1152   859   976    1
  1153   859   978    1
  1154  3433  3550    1
  1155  3433  3552    1
  1156   132   139    1
  1157   132   133    1
  1158  2277  2284    1
  1159  2277  2278    1
  1160   561   568    1
  1161   561   562    1
  1162  3135  3142    1
  1163  3135  3136    1
  1164  3564  3571    1
  1165  3564  3565    1
  1166  2706  2713    1
  1167  2706  2707    1
  1168   990   997    1
  1169   990   991    1
  1170  1419  1426    1
  1171  1419  1420    1
  1172  1848  1855    1
  1173  1848  1849    1
  1174  2151  2258    1
  1175  2151  2256    1
  1176  2151  2411    1
  1177  2580  2687    1
  1178  2580  2685    1
  1179  2580  2840    1
  1180  1293  1400    1
  1181  1293  1398    1
  1182  1293  1553    1
  1183  3438  3545    1
  1184  3438  3543    1
  1185  3438  3698    1
  1186   864   971    1
  1187   864   969    1
  1188   864  1124    1
  1189   435   542    1
  1190   435   540    1
  1191   435   695    1
  1192  1722  1829    1
  1193  1722  1827    1
  1194  1722  1982    1
  1195  3009  3116    1
  1196  3009  3114    1
  1197  3009  3269    1
  1198     6   113    1
  1199     6   111    1
  1200     6   266    1
  1201  2274  2280    1
  1202  2274  2272    2
  1203  1416  1422    1
  1204  1416  1414    2
  1205   558   564    1
  1206   558   556    2
  1207  2703  2709    1
  1208  2703  2701    2
  1209  3132  3138    1
  1210  3132  3130    2
  1211   987   993    1
  1212   987   985    2
  1213  3561  3567    1
  1214  3561  3559    2
  1215  1845  1851    1
  1216  1845  1843    2
  1217   129   135    1
  1218   129   127    2
  1219  3517  3497    1
  1220  2230  3512   ar
  1221  2230  2210   ar
  1222  2659  2639    1
  1223  1801  3083   ar
  1224  1801  1781   ar
  1225   514  1796   ar
  1226   514   494   ar
  1227    85  1367   ar
  1228    85    65   ar
  1229  3088  3068    1
  1230   943  2225   ar
  1231   943   923   ar
  1232  1372  2654   ar
  1233  1372  1352   ar
  1234    80    66    1
  1235  3083  3069   ar
  1236   509   495    1
  1237  1367  1353   ar
  1238  2654  2640   ar
  1239  1796  1782   ar
  1240  2225  2211   ar
  1241  3512  3498   ar
  1242   938   924    1
  1243  3519  3081   ar
  1244  3519  3638   ar
  1245  1803  1365   ar
  1246  1803  1922   ar
  1247  2232  1794   ar
  1248  2232  2351   ar
  1249   516    78   ar
  1250   516   635   ar
  1251   945   507   ar
  1252   945  1064   ar
  1253    87   206    1
  1254  2661  2780    1
  1255  1374  1493    1
  1256  3090  2652   ar
  1257  3090  3209   ar
  1258  1405  1359    1
  1259  3121  3075    1
  1260   547   501    1
  1261   976   930    1
  1262  2692  2646    1
  1263   118    72    1
  1264  3550  3504    1
  1265  2263  2217    1
  1266  1834  1788    1
  1267  1400  1358    1
  1268  3116  3074    1
  1269  3545  3503    1
  1270  1829  1787    1
  1271   971   929    1
  1272   542   500    1
  1273   113    71    1
  1274  2687  2645    1
  1275  2258  2216    1
  1276   997   993    1
  1277   997  1001    1
  1278  1426  1422    1
  1279  1426  1430    1
  1280   139   135    1
  1281   139   143    1
  1282  3571  3567    1
  1283  3571  3575    1
  1284  1855  1851    1
  1285  1855  1859    1
  1286  3142  3138    1
  1287  3142  3146    1
  1288  2713  2709    1
  1289  2713  2717    1
  1290  2284  2280    1
  1291  2284  2288    1
  1292   568   564    1
  1293   568   572    1
  1294  2256  2214    1
  1295  1827  1785    1
  1296   969   927    1
  1297  2685  2643    1
  1298   111    69    1
  1299   540   498    1
  1300  3543  3501    1
  1301  1398  1356    1
  1302  3114  3072    1
  1303   507   636   ar
  1304    78   207   ar
  1305  1794  1923   ar
  1306  3081  3210   ar
  1307  3510  3639    1
  1308  2652  2781   ar
  1309   936  1065    1
  1310  1365  1494   ar
  1311  2223  2352    1
  1312  2694  2787    1
  1313   120   213    1
  1314  3123  3216    1
  1315  3552  3645    1
  1316   978  1071    1
  1317  1836  1929    1
  1318  2265  2358    1
  1319   549   642    1
  1320  1407  1500    1
  1321   554   556    1
  1322   983   985    1
  1323  2699  2701    1
  1324  1412  1414    1
  1325   125   127    1
  1326  1841  1843    1
  1327  2270  2272    1
  1328  3128  3130    1
  1329  3557  3559    1
  1330  1422  1568    1
  1331   993  1139    1
  1332  2280  2426    1
  1333   135   281    1
  1334   564   710    1
  1335  3138  3284    1
  1336  1851  1997    1
  1337  3567  3713    1
  1338  2709  2855    1
  1339   985  1132    1
  1340  3130  3277    1
  1341  3559  3706    1
  1342  2701  2848    1
  1343  2272  2419    1
  1344   556   703    1
  1345   127   274    1
  1346  1414  1561    1
  1347  1843  1990    1
  1348    21   124    1
  1349   450   553    1
  1350  1308  1411    1
  1351  3453  3556    1
  1352  1737  1840    1
  1353  2166  2269    1
  1354  3024  3127    1
  1355  2595  2698    1
  1356   879   982    1
  1357    65    71    1
  1358    65  1509   ar
  1359   494   500    1
  1360   494  1938   ar
  1361  1352  1358    1
  1362  1352  2796   ar
  1363  3497  3503    2
  1364  2639  2645    2
  1365  1781  1787    1
  1366  1781  3225   ar
  1367  2210  2216    1
  1368  2210  3654   ar
  1369  3068  3074    2
  1370   923   929    1
  1371   923  2367   ar
  1372  3503  3692    1
  1373   500   689    1
  1374  2645  2834    1
  1375  2216  2405    1
  1376  3074  3263    1
  1377   929  1118    1
  1378  1787  1976    1
  1379    71   260    1
  1380  1358  1547    1
  1381   124   148    1
  1382   553   577    1
  1383  3556  3580    1
  1384  1840  1864    1
  1385  2698  2722    1
  1386   982  1006    1
  1387  2269  2293    1
  1388  3127  3151    1
  1389  1411  1435    1
  1390  2640  2646    1
  1391  2640  2803   ar
  1392   495   501    2
  1393   495   658    1
  1394  3498  3504    1
  1395  3498  3661   ar
  1396    66    72    2
  1397    66   229    1
  1398  1782  1788    1
  1399  1782  1945   ar
  1400  1353  1359    1
  1401  1353  1516   ar
  1402  2211  2217    1
  1403  2211  2374   ar
  1404  3069  3075    1
  1405  3069  3232   ar
  1406   924   930    2
  1407   924  1087    1
  1408   930  1115    1
  1409  2217  2402    1
  1410  3504  3689    1
  1411  2646  2831    1
  1412  1788  1973    1
  1413  3075  3260    1
  1414    72   257    1
  1415  1359  1544    1
  1416   501   686    1
  1417    69   206    2
  1418    69   262    1
  1419  2214  2351    1
  1420  2214  2407    1
  1421  3072  3209    1
  1422  3072  3265    1
  1423  1356  1493    2
  1424  1356  1549    1
  1425   927  1064    1
  1426   927  1120    1
  1427   498   635    1
  1428   498   691    1
  1429  1785  1922    1
  1430  1785  1978    1
  1431  2643  2780    2
  1432  2643  2836    1
  1433  3501  3638    1
  1434  3501  3694    1
  1435  1064  1078   ar
  1436  2351  2365   ar
  1437  2780  2794    1
  1438   635   649   ar
  1439  3638  3652   ar
  1440   206   220    1
  1441  1493  1507    1
  1442  3209  3223   ar
  1443  1922  1936   ar
  1444   213   207    1
  1445   213   255    1
  1446  2787  2781    1
  1447  2787  2829    1
  1448  1071  1065    2
  1449  1071  1113    1
  1450  2358  2352    2
  1451  2358  2400    1
  1452  3645  3639    2
  1453  3645  3687    1
  1454  3216  3210    1
  1455  3216  3258    1
  1456   642   636    1
  1457   642   684    1
  1458  1500  1494    1
  1459  1500  1542    1
  1460  1929  1923    1
  1461  1929  1971    1
  1462  3698  3597    1
  1463   695   594    1
  1464  1553  1452    1
  1465   266   165    1
  1466  3269  3168    1
  1467  2411  2310    1
  1468  1982  1881    1
  1469  1124  1023    1
  1470  2840  2739    1
  1471   636  1089   ar
  1472   207   660   ar
  1473  1494  1947   ar
  1474  2781  3234   ar
  1475  3210  3663   ar
  1476  1923  2376   ar
  1477   710   703    1
  1478   710   714    1
  1479  3284  3277    1
  1480  3284  3288    1
  1481  2855  2848    1
  1482  2855  2859    1
  1483  1568  1561    1
  1484  1568  1572    1
  1485  2426  2419    1
  1486  2426  2430    1
  1487  1997  1990    1
  1488  1997  2001    1
  1489   281   274    1
  1490   281   285    1
  1491  3713  3706    1
  1492  3713  3717    1
  1493  1139  1132    1
  1494  1139  1143    1
  1495   703   706    1
  1496  3277  3280    1
  1497  2419  2422    1
  1498  2848  2851    1
  1499  1561  1564    1
  1500   274   277    1
  1501  1990  1993    1
  1502  3706  3709    1
  1503  1132  1135    1
  1504  1976  1861    1
  1505  1118  1003    1
  1506  2405  2290    1
  1507  1547  1432    1
  1508  2834  2719    1
  1509  3692  3577    1
  1510  3263  3148    1
  1511   260   145    1
  1512   689   574    1
  1513  2402  2293    1
  1514   257   148    1
  1515  1115  1006    1
  1516  1544  1435    1
  1517  2831  2722    1
  1518  3260  3151    1
  1519   686   577    1
  1520  1973  1864    1
  1521  3689  3580    1
  1522  2367  2374   ar
  1523  2367  1016    1
  1524   651   658    2
  1525  2796  2803   ar
  1526  2796  1445    1
  1527  3654  3661   ar
  1528  3654  2303    1
  1529  1938  1945   ar
  1530  1938   587    1
  1531  3225  3232   ar
  1532  3225  1874    1
  1533  1509  1516   ar
  1534  1509   158    1
  1535  1080  1087    2
  1536   222   229    2
  1537  1120  1003    1
  1538  2407  2290    1
  1539   691   574    1
  1540  2836  2719    1
  1541   262   145    1
  1542  1549  1432    1
  1543  1978  1861    1
  1544  3265  3148    1
  1545  3694  3577    1
  1546  3687  3580    1
  1547  1542  1435    1
  1548  1971  1864    1
  1549  3258  3151    1
  1550  1113  1006    1
  1551   255   148    1
  1552  2400  2293    1
  1553   684   577    1
  1554  2829  2722    1
  1555  3661  3592    1
  1556  1087  1018    1
  1557  3232  3163    1
  1558  2374  2305    1
  1559   658   589    1
  1560  1516  1447    1
  1561  2803  2734    1
  1562   229   160    1
  1563  1945  1876    1
  1564   649   660   ar
  1565   649   585    1
  1566  1936  1947   ar
  1567  1936  1872    1
  1568  2365  2376   ar
  1569  2365  2301    1
  1570   220   231    2
  1571   220   156    1
  1572  3223  3234   ar
  1573  3223  3159    1
  1574  3652  3663   ar
  1575  3652  3588    1
  1576  1507  1518    2
  1577  1507  1443    1
  1578  1078  1089   ar
  1579  1078  1014    1
  1580  2794  2805    2
  1581  2794  2730    1
  1582  1518  1519    1
  1583  3663  3664    1
  1584   231   232    1
  1585  1089  1090    1
  1586  2376  2377    1
  1587  1947  1948    1
  1588  3234  3235    1
  1589  2805  2806    1
  1590   660   661    1
  1591  1560  1564    1
  1592  3276  3280    1
  1593   273   277    1
  1594  1989  1993    1
  1595   702   706    1
  1596  3705  3709    1
  1597  2847  2851    1
  1598  1131  1135    1
  1599  2418  2422    1
  1600  3151  3254    1
  1601  3151  3252    1
  1602  3151  3242    1
  1603   577   680    1
  1604   577   678    1
  1605   577   668    1
  1606  1435  1538    1
  1607  1435  1536    1
  1608  1435  1526    1
  1609   148   251    1
  1610   148   249    1
  1611   148   239    1
  1612  2293  2396    1
  1613  2293  2394    1
  1614  2293  2384    1
  1615  1006  1109    1
  1616  1006  1107    1
  1617  1006  1097    1
  1618  1864  1967    1
  1619  1864  1965    1
  1620  1864  1955    1
  1621  2722  2825    1
  1622  2722  2823    1
  1623  2722  2813    1
  1624  3580  3683    1
  1625  3580  3681    1
  1626  3580  3671    1
  1627  3148  3247    1
  1628  3148  3249    1
  1629  3148  3245    1
  1630   574   673    1
  1631   574   675    1
  1632   574   671    1
  1633  1003  1102    1
  1634  1003  1104    1
  1635  1003  1100    1
  1636  1432  1531    1
  1637  1432  1533    1
  1638  1432  1529    1
  1639   145   244    1
  1640   145   246    1
  1641   145   242    1
  1642  2290  2389    1
  1643  2290  2391    1
  1644  2290  2387    1
  1645  3577  3676    1
  1646  3577  3678    1
  1647  3577  3674    1
  1648  1861  1960    1
  1649  1861  1962    1
  1650  1861  1958    1
  1651  2719  2818    1
  1652  2719  2820    1
  1653  2719  2816    1
  1654   277   279    1
  1655   277   284    1
  1656  1993  1995    1
  1657  1993  2000    1
  1658  2851  2853    1
  1659  2851  2858    1
  1660  3709  3711    1
  1661  3709  3716    1
  1662   706   708    1
  1663   706   713    1
  1664  1564  1566    1
  1665  1564  1571    1
  1666  3280  3282    1
  1667  3280  3287    1
  1668  2422  2424    1
  1669  2422  2429    1
  1670  1135  1137    1
  1671  1135  1142    1
  1672  2319  2409    1
  1673  1890  1980    1
  1674  1032  1122    1
  1675  2748  2838    1
  1676   603   693    1
  1677   174   264    1
  1678  3606  3696    1
  1679  1461  1551    1
  1680  3177  3267    1
  1681   680   576    1
  1682   251   147    1
  1683  3683  3579    1
  1684  1109  1005    1
  1685  1538  1434    1
  1686  2396  2292    1
  1687  3254  3150    1
  1688  2825  2721    1
  1689  1967  1863    1
  1690  1531  1438    1
  1691  1102  1009    1
  1692   673   580    1
  1693   244   151    1
  1694  2389  2296    1
  1695  3676  3583    1
  1696  3247  3154    1
  1697  1960  1867    1
  1698  2818  2725    1
  1699  2377  1888    1
  1700  2377  2318    1
  1701  2806  2747    1
  1702  1519  1460    1
  1703   232   173    1
  1704  3664  3175    1
  1705  3664  3605    1
  1706  1948  1459    1
  1707  1948  1889    1
  1708   661   172    1
  1709   661   602    1
  1710  1090   601    1
  1711  1090  1031    1
  1712  3235  2746    1
  1713  3235  3176    1
  1714   678   576    1
  1715  3681  3579    1
  1716   249   147    1
  1717  2394  2292    1
  1718  1107  1005    1
  1719  2823  2721    1
  1720  1965  1863    1
  1721  1536  1434    1
  1722  3252  3150    1
  1723  2820  2725    1
  1724  1104  1009    1
  1725  2391  2296    1
  1726  3678  3583    1
  1727   675   580    1
  1728  3249  3154    1
  1729   246   151    1
  1730  1533  1438    1
  1731  1962  1867    1
  1732  3267  3154    1
  1733  1551  1438    1
  1734  1122  1009    1
  1735   264   151    1
  1736  2838  2725    1
  1737  2409  2296    1
  1738   693   580    1
  1739  3696  3583    1
  1740  1980  1867    1
  1741  1526  1476    1
  1742   668   618    1
  1743  2813  2763    1
  1744  1097  1047    1
  1745  3242  3192    1
  1746  1955  1905    1
  1747   239   189    1
  1748  2384  2334    1
  1749  3671  3621    1
  1750   671   615    1
  1751  2387  2331    1
  1752  3674  3618    1
  1753  1958  1902    1
  1754  1100  1044    1
  1755  2816  2760    1
  1756   242   186    1
  1757  1529  1473    1
  1758  3245  3189    1
  1759  2292  2385    1
  1760  2292  2404    1
  1761  1005  1098    1
  1762  1005  1117    1
  1763   147   240    1
  1764   147   259    1
  1765  2721  2814    1
  1766  2721  2833    1
  1767  1434  1527    1
  1768  1434  1546    1
  1769   576   669    1
  1770   576   688    1
  1771  1863  1956    1
  1772  1863  1975    1
  1773  3579  3672    1
  1774  3579  3691    1
  1775  3150  3243    1
  1776  3150  3262    1
  1777  2725  2810    1
  1778  2725  2826    1
  1779  2296  2381    1
  1780  2296  2397    1
  1781  3583  3668    1
  1782  3583  3684    1
  1783  3154  3239    1
  1784  3154  3255    1
  1785   580   665    1
  1786   580   681    1
  1787   151   236    1
  1788   151   252    1
  1789  1438  1523    1
  1790  1438  1539    1
  1791  1009  1094    1
  1792  1009  1110    1
  1793  1867  1952    1
  1794  1867  1968    1
  1795  2758  2778    1
  1796   613   633    1
  1797  1042  1062    1
  1798  3616  3636    1
  1799   184   204    1
  1800  2329  2349    1
  1801  3187  3207    1
  1802  1900  1920    1
  1803  1471  1491    1
  1804  3603  3629    1
  1805  2316  2342    1
  1806  1029  1055    1
  1807  1458  1484    1
  1808  1887  1913    1
  1809  2745  2771    1
  1810   171   197    1
  1811   600   626    1
  1812  3174  3200    1
  1813  1027  1058    1
  1814  2743  2774    1
  1815  3601  3632    1
  1816  3172  3203    1
  1817   169   200    1
  1818   598   629    1
  1819  2314  2345    1
  1820  1456  1487    1
  1821  1885  1916    1
  1822  1062  1076    2
  1823  1062  1082    1
  1824   633   647   ar
  1825   633   653   ar
  1826  1491  1505   ar
  1827  1491  1511   ar
  1828  2349  2363    2
  1829  2349  2369    1
  1830  2778  2792    1
  1831  2778  2798    2
  1832   204   218   ar
  1833   204   224   ar
  1834  3207  3221    1
  1835  3207  3227    2
  1836  1920  1934   ar
  1837  1920  1940   ar
  1838  3636  3650    1
  1839  3636  3656    2
  1840  2763  2814    1
  1841  2763  2767    1
  1842  2334  2385    1
  1843  2334  2338    1
  1844  1047  1098    1
  1845  1047  1051    1
  1846   189   240    1
  1847   189   193    1
  1848  3192  3243    1
  1849  3192  3196    1
  1850  1476  1527    1
  1851  1476  1480    1
  1852  3621  3672    1
  1853  3621  3625    1
  1854   618   669    1
  1855   618   622    1
  1856  1905  1956    1
  1857  1905  1909    1
  1858   583   647    1
  1859  1012  1076    1
  1860   154   218    1
  1861  3586  3650    1
  1862  2299  2363    1
  1863  3157  3221    1
  1864  1441  1505    1
  1865  1870  1934    1
  1866  2728  2792    1
  1867   615   665    1
  1868   615   619    1
  1869  1044  1094    1
  1870  1044  1048    1
  1871  1473  1523    1
  1872  1473  1477    1
  1873  3189  3239    1
  1874  3189  3193    2
  1875  2331  2381    1
  1876  2331  2335    1
  1877  1902  1952    1
  1878  1902  1906    1
  1879  2760  2810    1
  1880  2760  2764    2
  1881   186   236    1
  1882   186   190    1
  1883  3618  3668    1
  1884  3618  3622    2
  1885  3188  3227    1
  1886  1472  1511    1
  1887  2759  2798    1
  1888   614   653    1
  1889  2330  2369    1
  1890  3617  3656    1
  1891  1901  1940    1
  1892   185   224    1
  1893  1043  1082    1
  1894   647  1083   ar
  1895  2792  3228    2
  1896  3221  3657    2
  1897   218   654   ar
  1898  1934  2370   ar
  1899  1505  1941   ar
  1900  1082  2364    2
  1901  2369  3651    2
  1902  1940  3222   ar
  1903   224  1506   ar
  1904  1511  2793   ar
  1905   653  1935   ar
  1906  2833  2784    1
  1907   259   210    1
  1908  1975  1926    1
  1909  3262  3213    1
  1910  3691  3642    1
  1911  1117  1068    1
  1912   688   639    1
  1913  2404  2355    1
  1914  1546  1497    1
  1915   197   193   ar
  1916   197   628   ar
  1917  3200  3196   ar
  1918  3200  3631   ar
  1919  3629  3625    1
  1920  1913  1909   ar
  1921  1913  2344   ar
  1922  1484  1480   ar
  1923  1484  1915   ar
  1924  1055  1051    1
  1925   626   622   ar
  1926   626  1057   ar
  1927  2771  2767   ar
  1928  2771  3202   ar
  1929  2342  2338    1
  1930   629   619   ar
  1931   629  1911   ar
  1932   200   190   ar
  1933   200  1482   ar
  1934  1916  1906   ar
  1935  1916  3198   ar
  1936  3203  3193    1
  1937  1058  1048   ar
  1938  1058  2340   ar
  1939  3632  3622    1
  1940  1487  1477   ar
  1941  1487  2769   ar
  1942  2774  2764    1
  1943  2345  2335   ar
  1944  2345  3627   ar
  1945   252   210    1
  1946  1968  1926    1
  1947  1539  1497    1
  1948  2826  2784    1
  1949  3255  3213    1
  1950  1110  1068    1
  1951  2397  2355    1
  1952   681   639    1
  1953  3684  3642    1
  1954  1068  1060    1
  1955   210   202    1
  1956  1926  1918    1
  1957  3213  3205    1
  1958  3642  3634    1
  1959  1497  1489    1
  1960  2355  2347    1
  1961  2784  2776    1
  1962   639   631    1
  1963   622   627   ar
  1964  3625  3630    2
  1965  1909  1914   ar
  1966  2767  2772   ar
  1967  3196  3201   ar
  1968  1480  1485   ar
  1969  1051  1056    2
  1970  2338  2343    2
  1971   193   198   ar
  1972  1886  1911    1
  1973  1457  1482    1
  1974  3602  3627    1
  1975  3173  3198    1
  1976   170   195    1
  1977   599   624    1
  1978  1028  1053    1
  1979  2315  2340    1
  1980  2744  2769    1
  1981  3622  3626    1
  1982   619   623   ar
  1983  1048  1052   ar
  1984  3193  3197    1
  1985  2335  2339   ar
  1986   190   194   ar
  1987  1477  1481   ar
  1988  2764  2768    1
  1989  1906  1910   ar
  1990  2311  2344    1
  1991  1882  1915    1
  1992   166   199    1
  1993  3598  3631    1
  1994  3169  3202    1
  1995  2740  2773    1
  1996  1024  1057    1
  1997   595   628    1
  1998  1453  1486    1
  1999  2370  2308    1
  2000  2370  3637   ar
  2001   654   592    1
  2002   654  1921   ar
  2003  1512  1450    1
  2004  1512  2779    1
  2005   225   163    1
  2006   225  1492    1
  2007  1083  1021    1
  2008  1083  2350   ar
  2009  3657  3595    1
  2010  1941  1879    1
  2011  1941  3208   ar
  2012  2799  2737    1
  2013  3228  3166    1
  2014  3198  3194   ar
  2015  1482  1478   ar
  2016  3627  3623   ar
  2017  2340  2336   ar
  2018   624   620    1
  2019  2769  2765   ar
  2020   195   191    1
  2021  1053  1049    1
  2022  1911  1907   ar
  2023  2793  2727    1
  2024  2793  3208   ar
  2025  1506  1440    1
  2026  1506  1921   ar
  2027  3651  3585    1
  2028  1935  1869    1
  2029  1935  2350   ar
  2030   648   582    1
  2031   648  1063    1
  2032  1077  1011    1
  2033   219   153    1
  2034   219   634    1
  2035  2364  2298    1
  2036  3222  3156    1
  2037  3222  3637   ar
  2038  2773  2766    1
  2039  1915  1908   ar
  2040  3631  3624   ar
  2041  1057  1050   ar
  2042   199   192    1
  2043  2344  2337   ar
  2044   628   621   ar
  2045  3202  3195   ar
  2046  1486  1479    1
  2047  2350  2356    1
  2048  1921  1927    1
  2049  2779  2785    2
  2050  3208  3214    1
  2051  1063  1069    2
  2052   205   211    1
  2053  3637  3643    1
  2054  1492  1498    2
  2055   634   640    2
  2056  3634  3648   ar
  2057  3634  3658   ar
  2058  1918  1932   ar
  2059  1918  1942   ar
  2060  2347  2361   ar
  2061  2347  2371   ar
  2062  2776  2790   ar
  2063  2776  2800   ar
  2064  3205  3219   ar
  2065  3205  3229   ar
  2066   631   645   ar
  2067   631   655   ar
  2068  1060  1074   ar
  2069  1060  1084   ar
  2070  1489  1503   ar
  2071  1489  1513   ar
  2072   202   216   ar
  2073   202   226   ar
  2074  1041  1074    1
  2075   612   645    1
  2076   183   216    1
  2077  2328  2361    1
  2078  3186  3219    1
  2079  2757  2790    1
  2080  3615  3648    1
  2081  1899  1932    1
  2082  1470  1503    1
  2083  2306  2371    1
  2084  1019  1084    1
  2085  1448  1513    1
  2086  3164  3229    1
  2087  2735  2800    1
  2088  1877  1942    1
  2089  3593  3658    1
  2090   590   655    1
  2091   161   226    1
  2092  3201  3170    1
  2093  3201  3628   ar
  2094   198   167    1
  2095   198   625   ar
  2096  1056  1025    1
  2097  1485  1454    1
  2098  1485  1912   ar
  2099  2343  2312    1
  2100  2772  2741    1
  2101  2772  3199   ar
  2102  3630  3599    1
  2103   627   596    1
  2104   627  1054   ar
  2105  1914  1883    1
  2106  1914  2341   ar
  2107  3611  3666    1
  2108   608   663    1
  2109  2324  2379    1
  2110  1895  1950    1
  2111  3182  3237    1
  2112   179   234    1
  2113  1466  1521    1
  2114  2753  2808    1
  2115  1037  1092    1
  2116  2361  2372   ar
  2117   645   656   ar
  2118  2790  2801   ar
  2119  3219  3230   ar
  2120  3648  3659   ar
  2121   216   227   ar
  2122  1932  1943   ar
  2123  1074  1085   ar
  2124  1503  1514   ar
  2125  1052  1092    1
  2126  1052  2346   ar
  2127   194   234    1
  2128   194  1488   ar
  2129  2339  2379    1
  2130  2339  3633   ar
  2131  3626  3666    1
  2132   623   663    1
  2133   623  1917   ar
  2134  1481  1521    1
  2135  1481  2775   ar
  2136  1910  1950    1
  2137  1910  3204   ar
  2138  3197  3237    1
  2139  2768  2808    1
  2140  1942  1933   ar
  2141  2800  2791   ar
  2142  1084  1075   ar
  2143   655   646   ar
  2144  3658  3649   ar
  2145  1513  1504   ar
  2146   226   217   ar
  2147  3229  3220   ar
  2148  2371  2362   ar
  2149  3623  3633   ar
  2150  3623  3619    1
  2151  1478  1488   ar
  2152  1478  1474    1
  2153  3194  3204   ar
  2154  3194  3190    1
  2155  2765  2775   ar
  2156  2765  2761    1
  2157   620   630    2
  2158   620   616    1
  2159   191   201    2
  2160   191   187    1
  2161  1907  1917   ar
  2162  1907  1903    1
  2163  1049  1059    2
  2164  1049  1045    1
  2165  2336  2346   ar
  2166  2336  2332    1
  2167  2337  2341   ar
  2168  2337  2333    1
  2169  2766  2770    2
  2170  2766  2762    1
  2171  3195  3199   ar
  2172  3195  3191    1
  2173  1908  1912   ar
  2174  1908  1904    1
  2175   192   196    2
  2176   192   188    1
  2177  1050  1054   ar
  2178  1050  1046    1
  2179  1479  1483    2
  2180  1479  1475    1
  2181  3624  3628   ar
  2182  3624  3620    1
  2183   621   625   ar
  2184   621   617    1
  2185  3214  3256    1
  2186  3214  3261    1
  2187  1069  1111    1
  2188  1069  1116    1
  2189  2356  2398    1
  2190  2356  2403    1
  2191  1927  1969    1
  2192  1927  1974    1
  2193  2785  2827    1
  2194  2785  2832    1
  2195   640   682    1
  2196   640   687    1
  2197   211   253    1
  2198   211   258    1
  2199  3643  3685    1
  2200  3643  3690    1
  2201  1498  1540    1
  2202  1498  1545    1
  2203  2808  2752    1
  2204  3237  3181    1
  2205   663   607    1
  2206  1950  1894    1
  2207  2379  2323    1
  2208   234   178    1
  2209  3666  3610    1
  2210  1092  1036    1
  2211  1521  1465    1
  2212   682   579    1
  2213  1540  1437    1
  2214   253   150    1
  2215  3256  3153    1
  2216  1969  1866    1
  2217  2827  2724    1
  2218  1111  1008    1
  2219  3685  3582    1
  2220  2398  2295    1
  2221   201   168    1
  2222  1059  1026    1
  2223   630   597    1
  2224  3204  3171    1
  2225  2346  2313    1
  2226  3633  3600    1
  2227  1917  1884    1
  2228  1488  1455    1
  2229  2775  2742    1
  2230   196   235    1
  2231  1912  1951    1
  2232  3199  3238    1
  2233  1054  1093    1
  2234   625   664    1
  2235  1483  1522    1
  2236  3628  3667    1
  2237  2770  2809    1
  2238  2341  2380    1
  2239  2403  2291    1
  2240   687   575    1
  2241  3690  3578    1
  2242  3261  3149    1
  2243   258   146    1
  2244  2832  2720    1
  2245  1116  1004    1
  2246  1545  1433    1
  2247  1974  1862    1
  2248  1524  1474    1
  2249  1524  1437    1
  2250  1095  1045    1
  2251  1095  1008    1
  2252  3240  3190    1
  2253  3240  3153    1
  2254  3669  3619    1
  2255  3669  3582    1
  2256  2811  2761    1
  2257  2811  2724    1
  2258  2382  2332    1
  2259  2382  2295    1
  2260  1953  1903    1
  2261  1953  1866    1
  2262   666   616    1
  2263   666   579    1
  2264   237   187    1
  2265   237   150    1
  2266  1514  1449    1
  2267  1514  1490   ar
  2268  3230  3165    1
  2269  3230  3206   ar
  2270  3659  3594    1
  2271  3659  3635   ar
  2272  1943  1878    1
  2273  1943  1919   ar
  2274  1085  1020    1
  2275  1085  1061   ar
  2276  2801  2736    1
  2277  2801  2777   ar
  2278   227   162    1
  2279   227   203   ar
  2280  2372  2307    1
  2281  2372  2348   ar
  2282   656   591    1
  2283   656   632   ar
  2284  2386  2333    1
  2285  2386  2291    1
  2286   241   188    1
  2287   241   146    1
  2288  1957  1904    1
  2289  1957  1862    1
  2290  2815  2762    1
  2291  2815  2720    1
  2292  1099  1046    1
  2293  1099  1004    1
  2294  3244  3191    1
  2295  3244  3149    1
  2296  1528  1475    1
  2297  1528  1433    1
  2298   670   617    1
  2299   670   575    1
  2300  3673  3620    1
  2301  3673  3578    1
  2302  2362  2297    1
  2303  2362  2348   ar
  2304  1933  1868    1
  2305  1933  1919   ar
  2306  3220  3155    1
  2307  3220  3206   ar
  2308   646   581    1
  2309   646   632   ar
  2310  1504  1439    1
  2311  1504  1490   ar
  2312   217   152    1
  2313   217   203   ar
  2314  2791  2726    1
  2315  2791  2777   ar
  2316  1075  1010    1
  2317  1075  1061   ar
  2318  3649  3584    1
  2319  3649  3635   ar
  2320  2761  2817    1
  2321   616   672    1
  2322  1903  1959    1
  2323  1474  1530    1
  2324  3619  3675    1
  2325  3190  3246    1
  2326   187   243    1
  2327  1045  1101    1
  2328  2332  2388    1
  2329  1904  1954    1
  2330  2762  2812    1
  2331  3191  3241    1
  2332   188   238    1
  2333  2333  2383    1
  2334  1046  1096    1
  2335   617   667    1
  2336  3620  3670    1
  2337  1475  1525    1
  2338  3206  3185    1
  2339  1061  1040    1
  2340   203   182    1
  2341  3635  3614    1
  2342  1490  1469    1
  2343  1919  1898    1
  2344  2777  2756    1
  2345   632   611    1
  2346  2348  2327    1
  2347   664   609    1
  2348   664   610    1
  2349  1093  1038    1
  2350  1093  1039    1
  2351  2380  2325    1
  2352  2380  2326    1
  2353  3667  3612    1
  2354  3667  3613    1
  2355  3238  3183    1
  2356  3238  3184    1
  2357  1951  1896    1
  2358  1951  1897    1
  2359   235   180    1
  2360   235   181    1
  2361  1522  1467    1
  2362  1522  1468    1
  2363  2809  2754    1
  2364  2809  2755    1
  2365  1866  1981    1
  2366  1866  1961    1
  2367  1866  1963    1
  2368  1008  1123    1
  2369  1008  1103    1
  2370  1008  1105    1
  2371   150   265    1
  2372   150   245    1
  2373   150   247    1
  2374  2724  2839    1
  2375  2724  2819    1
  2376  2724  2821    1
  2377  3582  3697    1
  2378  3582  3677    1
  2379  3582  3679    1
  2380  2295  2410    1
  2381  2295  2390    1
  2382  2295  2392    1
  2383   579   694    1
  2384   579   674    1
  2385   579   676    1
  2386  1437  1552    1
  2387  1437  1532    1
  2388  1437  1534    1
  2389  3153  3268    1
  2390  3153  3248    1
  2391  3153  3250    1
  2392  3149  3253    1
  2393  3149  3251    1
  2394  1004  1108    1
  2395  1004  1106    1
  2396  3578  3682    1
  2397  3578  3680    1
  2398  2720  2824    1
  2399  2720  2822    1
  2400   146   250    1
  2401   146   248    1
  2402  1862  1966    1
  2403  1862  1964    1
  2404  1433  1537    1
  2405  1433  1535    1
  2406   575   679    1
  2407   575   677    1
  2408  2291  2395    1
  2409  2291  2393    1
  2410  3246  3147    1
  2411  1101  1002    1
  2412  1959  1860    1
  2413  3675  3576    1
  2414  1530  1431    1
  2415  2388  2289    1
  2416  2817  2718    1
  2417   243   144    1
  2418   672   573    1
  2419  3670  3581    1
  2420  1096  1007    1
  2421  2383  2294    1
  2422  3241  3152    1
  2423   667   578    1
  2424  1954  1865    1
  2425   238   149    1
  2426  1525  1436    1
  2427  2812  2723    1
  2428   605   662    1
  2429  1463  1520    1
  2430  2750  2807    1
  2431  3608  3665    1
  2432  2321  2378    1
  2433  1034  1091    1
  2434  1892  1949    1
  2435   176   233    1
  2436  3179  3236    1
  2437  2839  2749    1
  2438  1981  1891    1
  2439   265   175    1
  2440  1552  1462    1
  2441   694   604    1
  2442  1123  1033    1
  2443  3697  3607    1
  2444  2410  2320    1
  2445  3268  3178    1
  2446   245   144    1
  2447  2819  2718    1
  2448  2390  2289    1
  2449   674   573    1
  2450  1103  1002    1
  2451  1961  1860    1
  2452  3677  3576    1
  2453  3248  3147    1
  2454  1532  1431    1
  2455  1108  1007    1
  2456  2395  2294    1
  2457  1537  1436    1
  2458  3253  3152    1
  2459   679   578    1
  2460  2824  2723    1
  2461  1966  1865    1
  2462   250   149    1
  2463  3682  3581    1
  2464  2322  2378    1
  2465  3609  3665    1
  2466   177   233    1
  2467  1464  1520    1
  2468   606   662    1
  2469  1893  1949    1
  2470  3180  3236    1
  2471  1035  1091    1
  2472  2751  2807    1
  2473   271   275    1
  2474  3703  3707    1
  2475  2845  2849    1
  2476  2416  2420    1
  2477  3274  3278    1
  2478  1558  1562    1
  2479  1987  1991    1
  2480   700   704    1
  2481  1129  1133    1
  2482  2378  2373    1
  2483   233   228    1
  2484   662   657    1
  2485  1520  1515    1
  2486  1091  1086    1
  2487  3236  3231    1
  2488  1949  1944    1
  2489  2807  2802    1
  2490  3665  3660    1
  2491  1556  1559    1
  2492  2843  2846    1
  2493  3272  3275    1
  2494   269   272    1
  2495  3701  3704    1
  2496  1127  1130    1
  2497  2414  2417    1
  2498   698   701    1
  2499  1985  1988    1
  2500  1534  1431    1
  2501   247   144    1
  2502  3679  3576    1
  2503  2392  2289    1
  2504  3250  3147    1
  2505  1105  1002    1
  2506  1963  1860    1
  2507  2821  2718    1
  2508   676   573    1
  2509  3251  3152    1
  2510  1535  1436    1
  2511  2393  2294    1
  2512  1964  1865    1
  2513   248   149    1
  2514  3680  3581    1
  2515  1106  1007    1
  2516   677   578    1
  2517  2822  2723    1
  2518   157   223    1
  2519  1015  1081    1
  2520  2731  2797    1
  2521  3160  3226    1
  2522  1444  1510    1
  2523  1873  1939    1
  2524  3589  3655    1
  2525   586   652    1
  2526  2302  2368    1
  2527   280   275    1
  2528   709   704    1
  2529  2425  2420    1
  2530  1567  1562    1
  2531  1996  1991    1
  2532  2854  2849    1
  2533  3283  3278    1
  2534  3712  3707    1
  2535  1138  1133    1
  2536  3162  3233    1
  2537  3591  3662    1
  2538  1875  1946    1
  2539  1446  1517    1
  2540   159   230    1
  2541   588   659    1
  2542  2304  2375    1
  2543  1017  1088    1
  2544  2733  2804    1
  2545  3587  3653    1
  2546  1871  1937    1
  2547  1013  1079    1
  2548   584   650    1
  2549  2300  2366    1
  2550   155   221    1
  2551  2729  2795    1
  2552  3158  3224    1
  2553  1442  1508    1
  2554  2428  2427    1
  2555  3286  3285    1
  2556  1141  1140    1
  2557   283   282    1
  2558   712   711    1
  2559  3715  3714    1
  2560  1570  1569    1
  2561  2857  2856    1
  2562  1999  1998    1
  2563   144   261    1
  2564   144   263    1
  2565  2718  2835    1
  2566  2718  2837    1
  2567  3147  3264    1
  2568  3147  3266    1
  2569  1860  1977    1
  2570  1860  1979    1
  2571  1002  1119    1
  2572  1002  1121    1
  2573   573   690    1
  2574   573   692    1
  2575  1431  1548    1
  2576  1431  1550    1
  2577  2289  2406    1
  2578  2289  2408    1
  2579  3576  3693    1
  2580  3576  3695    1
  2581  3278  3285    1
  2582  3278  3279    1
  2583   704   711    1
  2584   704   705    1
  2585  2420  2427    1
  2586  2420  2421    1
  2587   275   282    1
  2588   275   276    1
  2589  1562  1569    1
  2590  1562  1563    1
  2591  1991  1998    1
  2592  1991  1992    1
  2593  2849  2856    1
  2594  2849  2850    1
  2595  1133  1140    1
  2596  1133  1134    1
  2597  3707  3714    1
  2598  3707  3708    1
  2599  3152  3259    1
  2600  3152  3257    1
  2601  3152  3412    1
  2602  1007  1114    1
  2603  1007  1112    1
  2604  1007  1267    1
  2605   149   256    1
  2606   149   254    1
  2607   149   409    1
  2608  2294  2401    1
  2609  2294  2399    1
  2610  2294  2554    1
  2611  3581  3688    1
  2612  3581  3686    1
  2613  3581  3841    1
  2614   578   685    1
  2615   578   683    1
  2616   578   838    1
  2617  2723  2830    1
  2618  2723  2828    1
  2619  2723  2983    1
  2620  1865  1972    1
  2621  1865  1970    1
  2622  1865  2125    1
  2623  1436  1543    1
  2624  1436  1541    1
  2625  1436  1696    1
  2626  1559  1565    1
  2627  1559  1557    2
  2628   701   707    1
  2629   701   699    2
  2630  2417  2423    1
  2631  2417  2415    2
  2632  3704  3710    1
  2633  3704  3702    2
  2634   272   278    1
  2635   272   270    2
  2636  1130  1136    1
  2637  1130  1128    2
  2638  1988  1994    1
  2639  1988  1986    2
  2640  3275  3281    1
  2641  3275  3273    2
  2642  2846  2852    1
  2643  2846  2844    2
  2644  1944  3226   ar
  2645  1944  1924   ar
  2646  2802  2782    1
  2647  1086  2368   ar
  2648  1086  1066   ar
  2649  3660  3640    1
  2650  1515  2797   ar
  2651  1515  1495   ar
  2652   228  1510   ar
  2653   228   208   ar
  2654   657  1939   ar
  2655   657   637   ar
  2656  3231  3211    1
  2657  2373  3655   ar
  2658  2373  2353   ar
  2659  2368  2354   ar
  2660  1081  1067    1
  2661   223   209    1
  2662  1939  1925   ar
  2663   652   638    1
  2664  3226  3212   ar
  2665  3655  3641   ar
  2666  2797  2783   ar
  2667  1510  1496   ar
  2668  3662  3224   ar
  2669  3662  3781   ar
  2670  1088   650   ar
  2671  1088  1207   ar
  2672  1946  1508   ar
  2673  1946  2065   ar
  2674  2804  2923    1
  2675  3233  2795   ar
  2676  3233  3352   ar
  2677   230   349    1
  2678  1517  1636    1
  2679  2375  1937   ar
  2680  2375  2494   ar
  2681   659   221   ar
  2682   659   778   ar
  2683  2835  2789    1
  2684  1119  1073    1
  2685  3693  3647    1
  2686  3264  3218    1
  2687  2406  2360    1
  2688   261   215    1
  2689  1548  1502    1
  2690  1977  1931    1
  2691   690   644    1
  2692   685   643    1
  2693  3688  3646    1
  2694  1543  1501    1
  2695   256   214    1
  2696  1972  1930    1
  2697  1114  1072    1
  2698  2401  2359    1
  2699  3259  3217    1
  2700  2830  2788    1
  2701  2427  2423    1
  2702  2427  2431    1
  2703  1140  1136    1
  2704  1140  1144    1
  2705   711   707    1
  2706   711   715    1
  2707   282   278    1
  2708   282   286    1
  2709  2856  2852    1
  2710  2856  2860    1
  2711  3714  3710    1
  2712  3714  3718    1
  2713  3285  3281    1
  2714  3285  3289    1
  2715  1998  1994    1
  2716  1998  2002    1
  2717  1569  1565    1
  2718  1569  1573    1
  2719  3257  3215    1
  2720  2399  2357    1
  2721  1112  1070    1
  2722  1541  1499    1
  2723   254   212    1
  2724   683   641    1
  2725  1970  1928    1
  2726  3686  3644    1
  2727  2828  2786    1
  2728  3653  3782    1
  2729  2366  2495    1
  2730  1508  1637   ar
  2731  1079  1208    1
  2732   221   350   ar
  2733  3224  3353   ar
  2734  1937  2066   ar
  2735  2795  2924   ar
  2736   650   779   ar
  2737  2837  2930    1
  2738  1979  2072    1
  2739  1550  1643    1
  2740   263   356    1
  2741  1121  1214    1
  2742   692   785    1
  2743  2408  2501    1
  2744  3695  3788    1
  2745  3266  3359    1
  2746  1126  1128    1
  2747  3700  3702    1
  2748  2413  2415    1
  2749  2842  2844    1
  2750   268   270    1
  2751  3271  3273    1
  2752  1555  1557    1
  2753   697   699    1
  2754  1984  1986    1
  2755  2852  2998    1
  2756   278   424    1
  2757  1565  1711    1
  2758  1136  1282    1
  2759  2423  2569    1
  2760  3281  3427    1
  2761  3710  3856    1
  2762   707   853    1
  2763  1994  2140    1
  2764  1557  1704    1
  2765  1986  2133    1
  2766  1128  1275    1
  2767  2415  2562    1
  2768   699   846    1
  2769  3273  3420    1
  2770  3702  3849    1
  2771  2844  2991    1
  2772   270   417    1
  2773   164   267    1
  2774  1880  1983    1
  2775  3167  3270    1
  2776  2738  2841    1
  2777  3596  3699    1
  2778  2309  2412    1
  2779  1022  1125    1
  2780   593   696    1
  2781  1451  1554    1
  2782   637   643    1
  2783   637  2081   ar
  2784  1924  1930    1
  2785  1924  3368   ar
  2786  2353  2359    1
  2787  2353  3797   ar
  2788  1495  1501    1
  2789  1495  2939   ar
  2790  1066  1072    1
  2791  1066  2510   ar
  2792  3211  3217    2
  2793  2782  2788    2
  2794  3640  3646    2
  2795   208   214    1
  2796   208  1652   ar
  2797  2788  2977    1
  2798  1072  1261    1
  2799  3646  3835    1
  2800  3217  3406    1
  2801   643   832    1
  2802  1501  1690    1
  2803  2359  2548    1
  2804   214   403    1
  2805  1930  2119    1
  2806  2412  2436    1
  2807  3270  3294    1
  2808  1983  2007    1
  2809   696   720    1
  2810  2841  2865    1
  2811   267   291    1
  2812  1125  1149    1
  2813  3699  3723    1
  2814  1554  1578    1
  2815  3641  3647    1
  2816  3641  3804   ar
  2817  3212  3218    1
  2818  3212  3375   ar
  2819   638   644    2
  2820   638   801    1
  2821  2783  2789    1
  2822  2783  2946   ar
  2823  1925  1931    1
  2824  1925  2088   ar
  2825  1067  1073    2
  2826  1067  1230    1
  2827  1496  1502    1
  2828  1496  1659   ar
  2829   209   215    2
  2830   209   372    1
  2831  2354  2360    1
  2832  2354  2517   ar
  2833  2789  2974    1
  2834  3218  3403    1
  2835  3647  3832    1
  2836  1931  2116    1
  2837   215   400    1
  2838  1073  1258    1
  2839   644   829    1
  2840  2360  2545    1
  2841  1502  1687    1
  2842  3215  3352    1
  2843  3215  3408    1
  2844   212   349    2
  2845   212   405    1
  2846  1070  1207    1
  2847  1070  1263    1
  2848  2357  2494    1
  2849  2357  2550    1
  2850  3644  3781    1
  2851  3644  3837    1
  2852  1499  1636    2
  2853  1499  1692    1
  2854   641   778    1
  2855   641   834    1
  2856  1928  2065    1
  2857  1928  2121    1
  2858  2786  2923    2
  2859  2786  2979    1
  2860  1636  1650    1
  2861   349   363    1
  2862  3352  3366   ar
  2863  1207  1221   ar
  2864  2065  2079   ar
  2865  2494  2508   ar
  2866   778   792   ar
  2867  2923  2937    1
  2868  3781  3795   ar
  2869  3359  3353    1
  2870  3359  3401    1
  2871  1214  1208    2
  2872  1214  1256    1
  2873   356   350    1
  2874   356   398    1
  2875  1643  1637    1
  2876  1643  1685    1
  2877   785   779    1
  2878   785   827    1
  2879  2072  2066    1
  2880  2072  2114    1
  2881  2930  2924    1
  2882  2930  2972    1
  2883  2501  2495    2
  2884  2501  2543    1
  2885  3788  3782    2
  2886  3788  3830    1
  2887  2554  2453    1
  2888  3841  3740    1
  2889  1696  1595    1
  2890  3412  3311    1
  2891  2983  2882    1
  2892   409   308    1
  2893  1267  1166    1
  2894   838   737    1
  2895  2125  2024    1
  2896  1637  2090   ar
  2897  3353  3806   ar
  2898  2924  3377   ar
  2899   350   803   ar
  2900  2066  2519   ar
  2901   779  1232   ar
  2902   853   846    1
  2903   853   857    1
  2904  1282  1275    1
  2905  1282  1286    1
  2906  2569  2562    1
  2907  2569  2573    1
  2908  1711  1704    1
  2909  1711  1715    1
  2910  3856  3849    1
  2911  3856  3860    1
  2912   424   417    1
  2913   424   428    1
  2914  3427  3420    1
  2915  3427  3431    1
  2916  2998  2991    1
  2917  2998  3002    1
  2918  2140  2133    1
  2919  2140  2144    1
  2920  1275  1278    1
  2921   846   849    1
  2922   417   420    1
  2923  3420  3423    1
  2924  3849  3852    1
  2925  2562  2565    1
  2926  1704  1707    1
  2927  2133  2136    1
  2928  2991  2994    1
  2929  1261  1146    1
  2930   832   717    1
  2931  3406  3291    1
  2932   403   288    1
  2933  1690  1575    1
  2934  3835  3720    1
  2935  2119  2004    1
  2936  2977  2862    1
  2937  2548  2433    1
  2938  3403  3294    1
  2939  1258  1149    1
  2940  2116  2007    1
  2941   829   720    1
  2942  3832  3723    1
  2943  2545  2436    1
  2944  1687  1578    1
  2945   400   291    1
  2946  2974  2865    1
  2947  2081  2088   ar
  2948  2081   730    1
  2949   794   801    2
  2950  2510  2517   ar
  2951  2510  1159    1
  2952  1223  1230    2
  2953  1652  1659   ar
  2954  1652   301    1
  2955  2939  2946   ar
  2956  2939  1588    1
  2957  3368  3375   ar
  2958  3368  2017    1
  2959  3797  3804   ar
  2960  3797  2446    1
  2961   365   372    2
  2962  2550  2433    1
  2963   834   717    1
  2964  2979  2862    1
  2965  3408  3291    1
  2966  2121  2004    1
  2967  1692  1575    1
  2968  3837  3720    1
  2969   405   288    1
  2970  1263  1146    1
  2971  1256  1149    1
  2972  2972  2865    1
  2973  3401  3294    1
  2974   398   291    1
  2975  2114  2007    1
  2976  2543  2436    1
  2977  1685  1578    1
  2978   827   720    1
  2979  3830  3723    1
  2980   372   303    1
  2981   801   732    1
  2982  3804  3735    1
  2983  3375  3306    1
  2984  2088  2019    1
  2985  1230  1161    1
  2986  1659  1590    1
  2987  2946  2877    1
  2988  2517  2448    1
  2989  1221  1232   ar
  2990  1221  1157    1
  2991  2508  2519   ar
  2992  2508  2444    1
  2993  1650  1661    2
  2994  1650  1586    1
  2995  3366  3377   ar
  2996  3366  3302    1
  2997  2937  2948    2
  2998  2937  2873    1
  2999   363   374    2
  3000   363   299    1
  3001  3795  3806   ar
  3002  3795  3731    1
  3003  2079  2090   ar
  3004  2079  2015    1
  3005   792   803   ar
  3006   792   728    1
  3007   803   804    1
  3008  2948  2949    1
  3009  3377  3378    1
  3010   374   375    1
  3011  1232  1233    1
  3012  2519  2520    1
  3013  1661  1662    1
  3014  2090  2091    1
  3015  3806  3807    1
  3016  2561  2565    1
  3017   416   420    1
  3018  1703  1707    1
  3019  2990  2994    1
  3020  3848  3852    1
  3021   845   849    1
  3022  2132  2136    1
  3023  1274  1278    1
  3024  3419  3423    1
  3025  1578  1681    1
  3026  1578  1679    1
  3027  1578  1669    1
  3028  2865  2968    1
  3029  2865  2966    1
  3030  2865  2956    1
  3031  1149  1252    1
  3032  1149  1250    1
  3033  1149  1240    1
  3034  3723  3826    1
  3035  3723  3824    1
  3036  3723  3814    1
  3037  2007  2110    1
  3038  2007  2108    1
  3039  2007  2098    1
  3040   720   823    1
  3041   720   821    1
  3042   720   811    1
  3043   291   394    1
  3044   291   392    1
  3045   291   382    1
  3046  2436  2539    1
  3047  2436  2537    1
  3048  2436  2527    1
  3049  3294  3397    1
  3050  3294  3395    1
  3051  3294  3385    1
  3052  2433  2532    1
  3053  2433  2534    1
  3054  2433  2530    1
  3055  1575  1674    1
  3056  1575  1676    1
  3057  1575  1672    1
  3058   717   816    1
  3059   717   818    1
  3060   717   814    1
  3061   288   387    1
  3062   288   389    1
  3063   288   385    1
  3064  3720  3819    1
  3065  3720  3821    1
  3066  3720  3817    1
  3067  2862  2961    1
  3068  2862  2963    1
  3069  2862  2959    1
  3070  1146  1245    1
  3071  1146  1247    1
  3072  1146  1243    1
  3073  2004  2103    1
  3074  2004  2105    1
  3075  2004  2101    1
  3076  3291  3390    1
  3077  3291  3392    1
  3078  3291  3388    1
  3079   420   422    1
  3080   420   427    1
  3081  2994  2996    1
  3082  2994  3001    1
  3083  2136  2138    1
  3084  2136  2143    1
  3085  1707  1709    1
  3086  1707  1714    1
  3087   849   851    1
  3088   849   856    1
  3089  1278  1280    1
  3090  1278  1285    1
  3091  3423  3425    1
  3092  3423  3430    1
  3093  2565  2567    1
  3094  2565  2572    1
  3095  3852  3854    1
  3096  3852  3859    1
  3097  2891  2981    1
  3098  2462  2552    1
  3099   317   407    1
  3100  3320  3410    1
  3101  1175  1265    1
  3102  2033  2123    1
  3103  3749  3839    1
  3104  1604  1694    1
  3105   746   836    1
  3106   394   290    1
  3107  3397  3293    1
  3108  1681  1577    1
  3109  1252  1148    1
  3110  3826  3722    1
  3111  2968  2864    1
  3112   823   719    1
  3113  2539  2435    1
  3114  2110  2006    1
  3115  3390  3297    1
  3116  2961  2868    1
  3117   816   723    1
  3118  3819  3726    1
  3119  2103  2010    1
  3120  1674  1581    1
  3121  1245  1152    1
  3122   387   294    1
  3123  2532  2439    1
  3124  1662  1603    1
  3125   804   315    1
  3126   804   745    1
  3127  3807  3318    1
  3128  3807  3748    1
  3129  2520  2031    1
  3130  2520  2461    1
  3131  3378  2889    1
  3132  3378  3319    1
  3133  2949  2890    1
  3134   375   316    1
  3135  2091  1602    1
  3136  2091  2032    1
  3137  1233   744    1
  3138  1233  1174    1
  3139  1679  1577    1
  3140  3395  3293    1
  3141  2966  2864    1
  3142  3824  3722    1
  3143   392   290    1
  3144   821   719    1
  3145  1250  1148    1
  3146  2537  2435    1
  3147  2108  2006    1
  3148  3821  3726    1
  3149   818   723    1
  3150  3392  3297    1
  3151  2963  2868    1
  3152   389   294    1
  3153  2534  2439    1
  3154  2105  2010    1
  3155  1247  1152    1
  3156  1676  1581    1
  3157  3839  3726    1
  3158  2552  2439    1
  3159   836   723    1
  3160   407   294    1
  3161  3410  3297    1
  3162  1694  1581    1
  3163  2981  2868    1
  3164  2123  2010    1
  3165  1265  1152    1
  3166  1669  1619    1
  3167  3385  3335    1
  3168  2098  2048    1
  3169   811   761    1
  3170  2527  2477    1
  3171  2956  2906    1
  3172  1240  1190    1
  3173  3814  3764    1
  3174   382   332    1
  3175  1243  1187    1
  3176  2530  2474    1
  3177  2959  2903    1
  3178   385   329    1
  3179  1672  1616    1
  3180  2101  2045    1
  3181  3388  3332    1
  3182   814   758    1
  3183  3817  3761    1
  3184  2006  2099    1
  3185  2006  2118    1
  3186  1148  1241    1
  3187  1148  1260    1
  3188  2864  2957    1
  3189  2864  2976    1
  3190   719   812    1
  3191   719   831    1
  3192  2435  2528    1
  3193  2435  2547    1
  3194  1577  1670    1
  3195  1577  1689    1
  3196  3722  3815    1
  3197  3722  3834    1
  3198   290   383    1
  3199   290   402    1
  3200  3293  3386    1
  3201  3293  3405    1
  3202   723   808    1
  3203   723   824    1
  3204  2439  2524    1
  3205  2439  2540    1
  3206  3726  3811    1
  3207  3726  3827    1
  3208  2868  2953    1
  3209  2868  2969    1
  3210  2010  2095    1
  3211  2010  2111    1
  3212  1581  1666    1
  3213  1581  1682    1
  3214  1152  1237    1
  3215  1152  1253    1
  3216   294   379    1
  3217   294   395    1
  3218  3297  3382    1
  3219  3297  3398    1
  3220  1614  1634    1
  3221  2043  2063    1
  3222   756   776    1
  3223  2472  2492    1
  3224  1185  1205    1
  3225  3330  3350    1
  3226   327   347    1
  3227  3759  3779    1
  3228  2901  2921    1
  3229  3317  3343    1
  3230   314   340    1
  3231  1601  1627    1
  3232  3746  3772    1
  3233  2030  2056    1
  3234   743   769    1
  3235  2459  2485    1
  3236  1172  1198    1
  3237  2888  2914    1
  3238  2028  2059    1
  3239  1599  1630    1
  3240   312   343    1
  3241  2457  2488    1
  3242  2886  2917    1
  3243  1170  1201    1
  3244   741   772    1
  3245  3744  3775    1
  3246  3315  3346    1
  3247   776   790   ar
  3248   776   796   ar
  3249  2492  2506    2
  3250  2492  2512    1
  3251   347   361   ar
  3252   347   367   ar
  3253  2921  2935    1
  3254  2921  2941    2
  3255  3350  3364    1
  3256  3350  3370    2
  3257  1205  1219    2
  3258  1205  1225    1
  3259  2063  2077   ar
  3260  2063  2083   ar
  3261  3779  3793    1
  3262  3779  3799    2
  3263  1634  1648   ar
  3264  1634  1654   ar
  3265  2477  2528    1
  3266  2477  2481    1
  3267  2048  2099    1
  3268  2048  2052    1
  3269  3335  3386    1
  3270  3335  3339    1
  3271  3764  3815    1
  3272  3764  3768    1
  3273  1619  1670    1
  3274  1619  1623    1
  3275  1190  1241    1
  3276  1190  1194    1
  3277   761   812    1
  3278   761   765    1
  3279   332   383    1
  3280   332   336    1
  3281  2906  2957    1
  3282  2906  2910    1
  3283  3729  3793    1
  3284  2871  2935    1
  3285  2442  2506    1
  3286  2013  2077    1
  3287   726   790    1
  3288  1584  1648    1
  3289   297   361    1
  3290  3300  3364    1
  3291  1155  1219    1
  3292  1187  1237    1
  3293  1187  1191    1
  3294  2045  2095    1
  3295  2045  2049    1
  3296  2474  2524    1
  3297  2474  2478    1
  3298   758   808    1
  3299   758   762    1
  3300   329   379    1
  3301   329   333    1
  3302  3761  3811    1
  3303  3761  3765    2
  3304  3332  3382    1
  3305  3332  3336    2
  3306  1616  1666    1
  3307  1616  1620    1
  3308  2903  2953    1
  3309  2903  2907    2
  3310  3331  3370    1
  3311   328   367    1
  3312  2902  2941    1
  3313  3760  3799    1
  3314  2044  2083    1
  3315   757   796    1
  3316  2473  2512    1
  3317  1186  1225    1
  3318  1615  1654    1
  3319  3364  3800    2
  3320  2935  3371    2
  3321  1648  2084   ar
  3322   361   797   ar
  3323  2077  2513   ar
  3324   790  1226   ar
  3325  2512  3794    2
  3326   367  1649   ar
  3327  2083  3365   ar
  3328  1225  2507    2
  3329   796  2078   ar
  3330  1654  2936   ar
  3331  3405  3356    1
  3332  2118  2069    1
  3333   402   353    1
  3334  3834  3785    1
  3335  2547  2498    1
  3336   831   782    1
  3337  1260  1211    1
  3338  2976  2927    1
  3339  1689  1640    1
  3340  2056  2052   ar
  3341  2056  2487   ar
  3342  2914  2910   ar
  3343  2914  3345   ar
  3344  1627  1623   ar
  3345  1627  2058   ar
  3346  3343  3339   ar
  3347  3343  3774   ar
  3348   769   765   ar
  3349   769  1200   ar
  3350  2485  2481    1
  3351   340   336   ar
  3352   340   771   ar
  3353  3772  3768    1
  3354  1198  1194    1
  3355   772   762   ar
  3356   772  2054   ar
  3357  1201  1191   ar
  3358  1201  2483   ar
  3359  2917  2907    1
  3360  2488  2478   ar
  3361  2488  3770   ar
  3362  1630  1620   ar
  3363  1630  2912   ar
  3364   343   333   ar
  3365   343  1625   ar
  3366  3775  3765    1
  3367  2059  2049   ar
  3368  2059  3341   ar
  3369  3346  3336    1
  3370   395   353    1
  3371   824   782    1
  3372  2969  2927    1
  3373  1253  1211    1
  3374  3398  3356    1
  3375  3827  3785    1
  3376  2111  2069    1
  3377  2540  2498    1
  3378  1682  1640    1
  3379  1640  1632    1
  3380  2069  2061    1
  3381   353   345    1
  3382  3785  3777    1
  3383  3356  3348    1
  3384   782   774    1
  3385  2927  2919    1
  3386  1211  1203    1
  3387  2498  2490    1
  3388   765   770   ar
  3389  1623  1628   ar
  3390   336   341   ar
  3391  3768  3773    2
  3392  1194  1199    2
  3393  3339  3344   ar
  3394  2481  2486    2
  3395  2910  2915   ar
  3396  2052  2057   ar
  3397   313   338    1
  3398  3745  3770    1
  3399  3316  3341    1
  3400   742   767    1
  3401  2458  2483    1
  3402  2887  2912    1
  3403  1171  1196    1
  3404  2029  2054    1
  3405  1600  1625    1
  3406  3336  3340    1
  3407  1191  1195   ar
  3408   333   337   ar
  3409  1620  1624   ar
  3410  2049  2053   ar
  3411  2478  2482   ar
  3412  3765  3769    1
  3413   762   766   ar
  3414  2907  2911    1
  3415  2025  2058    1
  3416  3741  3774    1
  3417  2454  2487    1
  3418   309   342    1
  3419  3312  3345    1
  3420  1596  1629    1
  3421   738   771    1
  3422  2883  2916    1
  3423  1167  1200    1
  3424  3800  3738    1
  3425  2513  2451    1
  3426  2513  3780   ar
  3427   368   306    1
  3428   368  1635    1
  3429  2084  2022    1
  3430  2084  3351   ar
  3431   797   735    1
  3432   797  2064   ar
  3433  1226  1164    1
  3434  1226  2493   ar
  3435  2942  2880    1
  3436  3371  3309    1
  3437  1655  1593    1
  3438  1655  2922    1
  3439  1196  1192    1
  3440  2054  2050   ar
  3441  3770  3766   ar
  3442  3341  3337   ar
  3443  1625  1621   ar
  3444   767   763    1
  3445  2483  2479   ar
  3446   338   334    1
  3447  2912  2908   ar
  3448  2507  2441    1
  3449  2936  2870    1
  3450  2936  3351   ar
  3451  3365  3299    1
  3452  3365  3780   ar
  3453  3794  3728    1
  3454   791   725    1
  3455   791  1206    1
  3456  1220  1154    1
  3457   362   296    1
  3458   362   777    1
  3459  1649  1583    1
  3460  1649  2064   ar
  3461  2078  2012    1
  3462  2078  2493   ar
  3463   342   335    1
  3464  2058  2051   ar
  3465  1200  1193   ar
  3466  1629  1622    1
  3467  2916  2909    1
  3468  3345  3338   ar
  3469  3774  3767   ar
  3470   771   764   ar
  3471  2487  2480   ar
  3472  2064  2070    1
  3473  1206  1212    2
  3474  3351  3357    1
  3475  2922  2928    2
  3476   777   783    2
  3477  1635  1641    2
  3478  2493  2499    1
  3479  3780  3786    1
  3480   348   354    1
  3481  3777  3791   ar
  3482  3777  3801   ar
  3483  1203  1217   ar
  3484  1203  1227   ar
  3485  2919  2933   ar
  3486  2919  2943   ar
  3487  2061  2075   ar
  3488  2061  2085   ar
  3489  3348  3362   ar
  3490  3348  3372   ar
  3491   774   788   ar
  3492   774   798   ar
  3493   345   359   ar
  3494   345   369   ar
  3495  1632  1646   ar
  3496  1632  1656   ar
  3497  2490  2504   ar
  3498  2490  2514   ar
  3499   326   359    1
  3500  2471  2504    1
  3501  1613  1646    1
  3502   755   788    1
  3503  3329  3362    1
  3504  1184  1217    1
  3505  2042  2075    1
  3506  3758  3791    1
  3507  2900  2933    1
  3508   733   798    1
  3509   304   369    1
  3510  1162  1227    1
  3511  2020  2085    1
  3512  2878  2943    1
  3513  1591  1656    1
  3514  2449  2514    1
  3515  3307  3372    1
  3516  3736  3801    1
  3517  3773  3742    1
  3518   770   739    1
  3519   770  1197   ar
  3520  3344  3313    1
  3521  3344  3771   ar
  3522  2057  2026    1
  3523  2057  2484   ar
  3524  1628  1597    1
  3525  1628  2055   ar
  3526  1199  1168    1
  3527  2486  2455    1
  3528   341   310    1
  3529   341   768   ar
  3530  2915  2884    1
  3531  2915  3342   ar
  3532  2896  2951    1
  3533  1609  1664    1
  3534  1180  1235    1
  3535  2038  2093    1
  3536  3754  3809    1
  3537  3325  3380    1
  3538  2467  2522    1
  3539   322   377    1
  3540   751   806    1
  3541  2504  2515   ar
  3542  2933  2944   ar
  3543  3791  3802   ar
  3544  1217  1228   ar
  3545  3362  3373   ar
  3546  2075  2086   ar
  3547  1646  1657   ar
  3548   788   799   ar
  3549   359   370   ar
  3550  2911  2951    1
  3551   766   806    1
  3552   766  2060   ar
  3553   337   377    1
  3554   337  1631   ar
  3555  3769  3809    1
  3556  2482  2522    1
  3557  2482  3776   ar
  3558  3340  3380    1
  3559  2053  2093    1
  3560  2053  3347   ar
  3561  1624  1664    1
  3562  1624  2918   ar
  3563  1195  1235    1
  3564  1195  2489   ar
  3565  2514  2505   ar
  3566  3801  3792   ar
  3567   369   360   ar
  3568   798   789   ar
  3569  3372  3363   ar
  3570  1227  1218   ar
  3571  2943  2934   ar
  3572  2085  2076   ar
  3573  1656  1647   ar
  3574  3766  3776   ar
  3575  3766  3762    1
  3576  2908  2918   ar
  3577  2908  2904    1
  3578   763   773    2
  3579   763   759    1
  3580  2050  2060   ar
  3581  2050  2046    1
  3582  3337  3347   ar
  3583  3337  3333    1
  3584  2479  2489   ar
  3585  2479  2475    1
  3586   334   344    2
  3587   334   330    1
  3588  1192  1202    2
  3589  1192  1188    1
  3590  1621  1631   ar
  3591  1621  1617    1
  3592  2480  2484   ar
  3593  2480  2476    1
  3594   764   768   ar
  3595   764   760    1
  3596  2051  2055   ar
  3597  2051  2047    1
  3598   335   339    2
  3599   335   331    1
  3600  1193  1197   ar
  3601  1193  1189    1
  3602  3767  3771   ar
  3603  3767  3763    1
  3604  1622  1626    2
  3605  1622  1618    1
  3606  2909  2913    2
  3607  2909  2905    1
  3608  3338  3342   ar
  3609  3338  3334    1
  3610  3357  3399    1
  3611  3357  3404    1
  3612  2070  2112    1
  3613  2070  2117    1
  3614   783   825    1
  3615   783   830    1
  3616   354   396    1
  3617   354   401    1
  3618  2928  2970    1
  3619  2928  2975    1
  3620  2499  2541    1
  3621  2499  2546    1
  3622  1641  1683    1
  3623  1641  1688    1
  3624  3786  3828    1
  3625  3786  3833    1
  3626  1212  1254    1
  3627  1212  1259    1
  3628  2522  2466    1
  3629  1664  1608    1
  3630   806   750    1
  3631  2093  2037    1
  3632  3380  3324    1
  3633  2951  2895    1
  3634   377   321    1
  3635  3809  3753    1
  3636  1235  1179    1
  3637  3828  3725    1
  3638  2970  2867    1
  3639  2541  2438    1
  3640   396   293    1
  3641  3399  3296    1
  3642  1683  1580    1
  3643   825   722    1
  3644  2112  2009    1
  3645  1254  1151    1
  3646  1631  1598    1
  3647  2489  2456    1
  3648   773   740    1
  3649  2060  2027    1
  3650  1202  1169    1
  3651  3347  3314    1
  3652   344   311    1
  3653  3776  3743    1
  3654  2918  2885    1
  3655  3342  3381    1
  3656  1197  1236    1
  3657  1626  1665    1
  3658  2913  2952    1
  3659  3771  3810    1
  3660   339   378    1
  3661  2055  2094    1
  3662  2484  2523    1
  3663   768   807    1
  3664   401   289    1
  3665  1259  1147    1
  3666  2546  2434    1
  3667  3833  3721    1
  3668  2117  2005    1
  3669   830   718    1
  3670  2975  2863    1
  3671  3404  3292    1
  3672  1688  1576    1
  3673  1667  1617    1
  3674  1667  1580    1
  3675   380   330    1
  3676   380   293    1
  3677  2954  2904    1
  3678  2954  2867    1
  3679  3812  3762    1
  3680  3812  3725    1
  3681  2096  2046    1
  3682  2096  2009    1
  3683   809   759    1
  3684   809   722    1
  3685  1238  1188    1
  3686  1238  1151    1
  3687  2525  2475    1
  3688  2525  2438    1
  3689  3383  3333    1
  3690  3383  3296    1
  3691  1657  1592    1
  3692  1657  1633   ar
  3693   799   734    1
  3694   799   775   ar
  3695  3802  3737    1
  3696  3802  3778   ar
  3697  1228  1163    1
  3698  1228  1204   ar
  3699  3373  3308    1
  3700  3373  3349   ar
  3701   370   305    1
  3702   370   346   ar
  3703  2944  2879    1
  3704  2944  2920   ar
  3705  2515  2450    1
  3706  2515  2491   ar
  3707  2086  2021    1
  3708  2086  2062   ar
  3709  3387  3334    1
  3710  3387  3292    1
  3711   384   331    1
  3712   384   289    1
  3713  1671  1618    1
  3714  1671  1576    1
  3715   813   760    1
  3716   813   718    1
  3717  3816  3763    1
  3718  3816  3721    1
  3719  2958  2905    1
  3720  2958  2863    1
  3721  2529  2476    1
  3722  2529  2434    1
  3723  1242  1189    1
  3724  1242  1147    1
  3725  2100  2047    1
  3726  2100  2005    1
  3727  1218  1153    1
  3728  1218  1204   ar
  3729  2934  2869    1
  3730  2934  2920   ar
  3731  3363  3298    1
  3732  3363  3349   ar
  3733  2076  2011    1
  3734  2076  2062   ar
  3735   789   724    1
  3736   789   775   ar
  3737  2505  2440    1
  3738  2505  2491   ar
  3739   360   295    1
  3740   360   346   ar
  3741  3792  3727    1
  3742  3792  3778   ar
  3743  1647  1582    1
  3744  1647  1633   ar
  3745  1617  1673    1
  3746  1188  1244    1
  3747   330   386    1
  3748   759   815    1
  3749  2904  2960    1
  3750  3333  3389    1
  3751  2475  2531    1
  3752  3762  3818    1
  3753  2046  2102    1
  3754   331   381    1
  3755  2476  2526    1
  3756   760   810    1
  3757  2905  2955    1
  3758  2047  2097    1
  3759  3763  3813    1
  3760  3334  3384    1
  3761  1189  1239    1
  3762  1618  1668    1
  3763   346   325    1
  3764  2491  2470    1
  3765   775   754    1
  3766  1204  1183    1
  3767  1633  1612    1
  3768  2920  2899    1
  3769  3778  3757    1
  3770  2062  2041    1
  3771  3349  3328    1
  3772   378   323    1
  3773   378   324    1
  3774  2094  2039    1
  3775  2094  2040    1
  3776  1236  1181    1
  3777  1236  1182    1
  3778  2523  2468    1
  3779  2523  2469    1
  3780  3810  3755    1
  3781  3810  3756    1
  3782  3381  3326    1
  3783  3381  3327    1
  3784  1665  1610    1
  3785  1665  1611    1
  3786  2952  2897    1
  3787  2952  2898    1
  3788   807   752    1
  3789   807   753    1
  3790  3296  3411    1
  3791  3296  3391    1
  3792  3296  3393    1
  3793  1151  1266    1
  3794  1151  1246    1
  3795  1151  1248    1
  3796  2009  2124    1
  3797  2009  2104    1
  3798  2009  2106    1
  3799  1580  1695    1
  3800  1580  1675    1
  3801  1580  1677    1
  3802  3725  3840    1
  3803  3725  3820    1
  3804  3725  3822    1
  3805  2438  2553    1
  3806  2438  2533    1
  3807  2438  2535    1
  3808   722   837    1
  3809   722   817    1
  3810   722   819    1
  3811  2867  2982    1
  3812  2867  2962    1
  3813  2867  2964    1
  3814   293   408    1
  3815   293   388    1
  3816   293   390    1
  3817  2863  2967    1
  3818  2863  2965    1
  3819  2005  2109    1
  3820  2005  2107    1
  3821  3292  3396    1
  3822  3292  3394    1
  3823  3721  3825    1
  3824  3721  3823    1
  3825   718   822    1
  3826   718   820    1
  3827  1147  1251    1
  3828  1147  1249    1
  3829  2434  2538    1
  3830  2434  2536    1
  3831   289   393    1
  3832   289   391    1
  3833  1576  1680    1
  3834  1576  1678    1
  3835   815   716    1
  3836  1673  1574    1
  3837  2531  2432    1
  3838  3389  3290    1
  3839  2102  2003    1
  3840  3818  3719    1
  3841  1244  1145    1
  3842  2960  2861    1
  3843   386   287    1
  3844  2526  2437    1
  3845   381   292    1
  3846  3384  3295    1
  3847  2097  2008    1
  3848   810   721    1
  3849  1668  1579    1
  3850  3813  3724    1
  3851  1239  1150    1
  3852  2955  2866    1
  3853  2893  2950    1
  3854  1606  1663    1
  3855  3751  3808    1
  3856  2035  2092    1
  3857  1177  1234    1
  3858  3322  3379    1
  3859   319   376    1
  3860  2464  2521    1
  3861   748   805    1
  3862   408   318    1
  3863  3840  3750    1
  3864  3411  3321    1
  3865  2553  2463    1
  3866  1695  1605    1
  3867  1266  1176    1
  3868  2982  2892    1
  3869   837   747    1
  3870  2124  2034    1
  3871  2962  2861    1
  3872  3391  3290    1
  3873  2533  2432    1
  3874  1675  1574    1
  3875  1246  1145    1
  3876  3820  3719    1
  3877  2104  2003    1
  3878   817   716    1
  3879   388   287    1
  3880  3396  3295    1
  3881  2538  2437    1
  3882  2967  2866    1
  3883  1680  1579    1
  3884   393   292    1
  3885  1251  1150    1
  3886  3825  3724    1
  3887  2109  2008    1
  3888   822   721    1
  3889  2036  2092    1
  3890   320   376    1
  3891  2465  2521    1
  3892  3752  3808    1
  3893  3323  3379    1
  3894  1607  1663    1
  3895   749   805    1
  3896  2894  2950    1
  3897  1178  1234    1
  3898  1272  1276    1
  3899  2130  2134    1
  3900   414   418    1
  3901  2559  2563    1
  3902  3846  3850    1
  3903  2988  2992    1
  3904  1701  1705    1
  3905   843   847    1
  3906  3417  3421    1
  3907  2092  2087    1
  3908  1234  1229    1
  3909   376   371    1
  3910  2521  2516    1
  3911   805   800    1
  3912  2950  2945    1
  3913  3379  3374    1
  3914  3808  3803    1
  3915  1663  1658    1
  3916  3415  3418    1
  3917   412   415    1
  3918  2986  2989    1
  3919  2128  2131    1
  3920  1699  1702    1
  3921  1270  1273    1
  3922  3844  3847    1
  3923  2557  2560    1
  3924   841   844    1
  3925  2964  2861    1
  3926   819   716    1
  3927  2106  2003    1
  3928  3393  3290    1
  3929  3822  3719    1
  3930  1248  1145    1
  3931  1677  1574    1
  3932   390   287    1
  3933  2535  2432    1
  3934   820   721    1
  3935  1249  1150    1
  3936  2107  2008    1
  3937  1678  1579    1
  3938   391   292    1
  3939  3823  3724    1
  3940  2536  2437    1
  3941  2965  2866    1
  3942  3394  3295    1
  3943  3303  3369    1
  3944   729   795    1
  3945  1587  1653    1
  3946  2016  2082    1
  3947  3732  3798    1
  3948  1158  1224    1
  3949  2874  2940    1
  3950   300   366    1
  3951  2445  2511    1
  3952  2139  2134    1
  3953  1281  1276    1
  3954  3426  3421    1
  3955  3855  3850    1
  3956   423   418    1
  3957  2568  2563    1
  3958  2997  2992    1
  3959  1710  1705    1
  3960   852   847    1
  3961  2447  2518    1
  3962  3305  3376    1
  3963  1589  1660    1
  3964  3734  3805    1
  3965  1160  1231    1
  3966   731   802    1
  3967  2018  2089    1
  3968   302   373    1
  3969  2876  2947    1
  3970   727   793    1
  3971  3301  3367    1
  3972  1585  1651    1
  3973  1156  1222    1
  3974  2443  2509    1
  3975  2014  2080    1
  3976  3730  3796    1
  3977  2872  2938    1
  3978   298   364    1
  3979  1284  1283    1
  3980  3000  2999    1
  3981   855   854    1
  3982  2571  2570    1
  3983  1713  1712    1
  3984  2142  2141    1
  3985  3858  3857    1
  3986  3429  3428    1
  3987   426   425    1
  3988   716   833    1
  3989   716   835    1
  3990   716   839    1
  3991  2003  2120    1
  3992  2003  2122    1
  3993  2003  2126    1
  3994  3290  3407    1
  3995  3290  3409    1
  3996  3290  3413    1
  3997  1145  1262    1
  3998  1145  1264    1
  3999  1145  1268    1
  4000  1574  1691    1
  4001  1574  1693    1
  4002  1574  1697    1
  4003  2861  2978    1
  4004  2861  2980    1
  4005  2861  2984    1
  4006   287   404    1
  4007   287   406    1
  4008   287   410    1
  4009  3719  3836    1
  4010  3719  3838    1
  4011  3719  3842    1
  4012  2432  2549    1
  4013  2432  2551    1
  4014  2432  2555    1
  4015  2134  2141    1
  4016  2134  2135    1
  4017  1276  1283    1
  4018  1276  1277    1
  4019   418   425    1
  4020   418   419    1
  4021  3421  3428    1
  4022  3421  3422    1
  4023  2563  2570    1
  4024  2563  2564    1
  4025  3850  3857    1
  4026  3850  3851    1
  4027   847   854    1
  4028   847   848    1
  4029  1705  1712    1
  4030  1705  1706    1
  4031  2992  2999    1
  4032  2992  2993    1
  4033  1579  1686    1
  4034  1579  1684    1
  4035  2008  2115    1
  4036  2008  2113    1
  4037  2866  2973    1
  4038  2866  2971    1
  4039  3295  3402    1
  4040  3295  3400    1
  4041   721   828    1
  4042   721   826    1
  4043  1150  1257    1
  4044  1150  1255    1
  4045  2437  2544    1
  4046  2437  2542    1
  4047  3724  3831    1
  4048  3724  3829    1
  4049   292   399    1
  4050   292   397    1
  4051  2989  2995    1
  4052  2989  2987    2
  4053  1702  1708    2
  4054  1702  1700    1
  4055  2560  2566    2
  4056  2560  2558    1
  4057  3847  3853    1
  4058  3847  3845    2
  4059  1273  1279    1
  4060  1273  1271    2
  4061  2131  2137    1
  4062  2131  2129    2
  4063   415   421    1
  4064   415   413    2
  4065  3418  3424    1
  4066  3418  3416    2
  4067   844   850    2
  4068   844   842    1
  4069   800  2082    2
  4070   800   780    1
  4071  1658  2940    2
  4072  1658  1638    1
  4073  3803  3783    1
  4074   371  1653    2
  4075   371   351    1
  4076  2516  3798    2
  4077  2516  2496    1
  4078  3374  3354    1
  4079  2087  3369    2
  4080  2087  2067    1
  4081  2945  2925    1
  4082  1229  2511    2
  4083  1229  1209    1
  4084  2082  2068    1
  4085  3798  3784    1
  4086  2940  2926    1
  4087   366   352    1
  4088  1224  1210    1
  4089   795   781    1
  4090  3369  3355    1
  4091  2511  2497    1
  4092  1653  1639    1
  4093  3376  2938    2
  4094  2089  1651    2
  4095  3805  3367    2
  4096   802   364    2
  4097  2518  2080    2
  4098  1231   793    2
  4099  1262  1216    1
  4100   404   358    1
  4101  1691  1645    1
  4102  2120  2074    1
  4103   833   787    1
  4104  3407  3361    1
  4105  2549  2503    1
  4106  2978  2932    1
  4107  3836  3790    1
  4108  2973  2931    1
  4109   828   786    1
  4110  3831  3789    1
  4111  1686  1644    1
  4112  3402  3360    1
  4113  2544  2502    1
  4114  2115  2073    1
  4115   399   357    1
  4116  1257  1215    1
  4117  1283  1279    1
  4118  1283  1287    1
  4119   854   850    1
  4120   854   858    1
  4121  1712  1708    1
  4122  1712  1716    1
  4123  2141  2137    1
  4124  2141  2145    1
  4125   425   421    1
  4126   425   429    1
  4127  2570  2566    1
  4128  2570  2574    1
  4129  3857  3853    1
  4130  3857  3861    1
  4131  2999  2995    1
  4132  2999  3003    1
  4133  3428  3424    1
  4134  3428  3432    1
  4135   397   355    1
  4136  1255  1213    1
  4137  3829  3787    1
  4138   826   784    1
  4139  2113  2071    1
  4140  2542  2500    1
  4141  3400  3358    1
  4142  2971  2929    1
  4143  1684  1642    1
  4144  1698  1700    1
  4145  2127  2129    1
  4146   411   413    1
  4147  1269  1271    1
  4148  3843  3845    1
  4149  3414  3416    1
  4150   840   842    1
  4151  2556  2558    1
  4152  2985  2987    1
  4153  1165  1268    1
  4154  3310  3413    1
  4155  2023  2126    1
  4156   307   410    1
  4157   736   839    1
  4158  3739  3842    1
  4159  2881  2984    1
  4160  1594  1697    1
  4161  2452  2555    1
  4162  3783  3789    2
  4163  1209  1215    2
  4164  3354  3360    2
  4165  1638  1644    2
  4166  2496  2502    2
  4167  2925  2931    2
  4168   780   786    2
  4169  2067  2073    2
  4170   351   357    2
  4171  3784  3790    2
  4172   352   358    2
  4173  1639  1645    2
  4174  2497  2503    2
  4175  2926  2932    2
  4176  3355  3361    2
  4177  2068  2074    2
  4178   781   787    2
  4179  1210  1216    2
