@<TRIPOS>MOLECULE
Lattice="48.028173 0.0 0.0 -21.065805799347643 43.13043493897204 0.0 -12.937594211639794 -21.717605374402837 39.33082132276351" Properties=species:S:1:pos:R:3 pbc="T T T"
 3861 4179 0 0 0
SMALL
GASTEIGER

@<TRIPOS>ATOM
      1 TI         -2.8684    2.1155   11.2652 Ti      1  UNL1        0.0000
      2 TI          7.8027    5.3833    1.8444 Ti      1  UNL1        0.0000
      3 TI          1.3526   -1.6735    9.4170 Ti      1  UNL1        0.0000
      4 TI          2.5117    7.5426    3.6484 Ti      1  UNL1        0.0000
      5 TI          1.4446    9.1874    1.7520 Ti      1  UNL1        0.0000
      6 TI          3.2594   -1.8643   11.3595 Ti      1  UNL1        0.0000
      7 TI         -1.8699    0.4160    9.3660 Ti      1  UNL1        0.0000
      8 TI          5.8159    5.6142    3.7033 Ti      1  UNL1        0.0000
      9 H          -2.5037    6.0280   11.0484 H       1  UNL1        0.0000
     10 H           8.7487    1.5074    2.1552 H       2  UNL2        0.0000
     11 H          -6.8016    1.2219   10.9036 H       1  UNL1        0.0000
     12 H          11.1141    7.5039    2.0291 H      14  UNL14       0.0000
     13 H           4.3727   -5.8619   10.9625 H       1  UNL1        0.0000
     14 H          -2.5890    8.4562    2.0957 H       1  UNL1        0.0000
     15 H          -2.3273    0.3319   12.9842 H       1  UNL1        0.0000
     16 H           5.9273    5.0775    0.1546 H       1  UNL1        0.0000
     17 H           3.7614   -2.5066    5.8447 H       1  UNL1        0.0000
     18 H           0.7456    9.3142    7.2795 H       1  UNL1        0.0000
     19 H          -6.0599    3.6612    9.0374 H       1  UNL1        0.0000
     20 H          10.6412    3.3934    4.1322 H       1  UNL1        0.0000
     21 H          -3.7285    2.2987    5.6889 H       1  UNL1        0.0000
     22 H          -1.7040   10.9034    4.1249 H       1  UNL1        0.0000
     23 H           1.7334   12.3010    2.6096 H       1  UNL1        0.0000
     24 H           8.6680   -0.5172    3.3557 H       2  UNL2        0.0000
     25 H           4.6066    7.2974    2.2978 H       1  UNL1        0.0000
     26 H           0.2155    0.1346   10.7192 H       1  UNL1        0.0000
     27 H           7.4152    0.2188    9.7284 H       1  UNL1        0.0000
     28 H           5.9555   -0.3025   10.4833 H       1  UNL1        0.0000
     29 H           7.8285    4.6710    8.6325 H       1  UNL1        0.0000
     30 H           7.2376    5.0115    7.0176 H       1  UNL1        0.0000
     31 H           7.0981   -4.7498    9.5342 H       1  UNL1        0.0000
     32 H           5.7840   -3.6950   10.0002 H       1  UNL1        0.0000
     33 C           8.4222    4.6592    4.7037 C.3     1  UNL1        0.0000
     34 C          -3.8533    2.3467    8.4239 C.3     1  UNL1        0.0000
     35 C           3.9615   -2.5926    8.4766 C.3     1  UNL1        0.0000
     36 C           0.5135    9.4434    4.6213 C.3     1  UNL1        0.0000
     37 C           9.3443    4.0852    5.6930 C.ar    1  UNL1        0.0000
     38 C          -4.8119    2.9401    7.4529 C.2     1  UNL1        0.0000
     39 C           4.9172   -3.1727    7.5233 C.2     1  UNL1        0.0000
     40 C          -0.3927   10.0576    5.6269 C.ar    1  UNL1        0.0000
     41 C           9.1009    4.1498    7.1009 C.ar    1  UNL1        0.0000
     42 C          -4.5992    2.8294    6.0635 C.3     1  UNL1        0.0000
     43 C           6.0750   -3.8938    7.9691 C.2     1  UNL1        0.0000
     44 C          -1.5161   10.7925    5.1891 C.ar    1  UNL1        0.0000
     45 C          -0.1248    9.8942    6.9801 C.ar    1  UNL1        0.0000
     46 C           4.6573   -3.0476    6.1410 C.3     1  UNL1        0.0000
     47 C          10.4989    3.4267    5.2100 C.ar    1  UNL1        0.0000
     48 C          -5.9327    3.5932    7.9586 C.2     1  UNL1        0.0000
     49 C           8.7150    1.5883    0.0113 C.3     2  UNL2        0.0000
     50 C           1.8390   13.1474    0.0887 C.2     1  UNL1        0.0000
     51 C           6.6841    0.1954   12.9898 C.ar    1  UNL1        0.0000
     52 C          -6.7198    1.2718   13.0467 C.2     1  UNL1        0.0000
     53 C           3.3505    5.2245    5.6056 C.3     1  UNL1        0.0000
     54 C          -1.1450   -2.0334    7.5402 C.3     1  UNL1        0.0000
     55 C           4.2160   -4.2016   13.1012 C.2     1  UNL1        0.0000
     56 C           1.7960   11.7116    0.0497 C.2     1  UNL1        0.0000
     57 C           5.4088   -0.4663   13.0430 C.3     1  UNL1        0.0000
     58 C          -5.3326    1.7347   13.0640 C.2     1  UNL1        0.0000
     59 C           8.7845    0.9195    1.2398 C.2     2  UNL2        0.0000
     60 C          -2.5081    6.6153   11.9630 C.ar    1  UNL1        0.0000
     61 C          -4.3605    7.7305    1.1102 C.2     1  UNL1        0.0000
     62 C          -7.3514    1.0220   11.8218 C.3     1  UNL1        0.0000
     63 C           7.3617    0.4896   11.7534 C.ar    1  UNL1        0.0000
     64 C          -3.0892    8.2550    1.1525 C.2     1  UNL1        0.0000
     65 C           4.4380   -6.3885   11.9106 C.3     1  UNL1        0.0000
     66 C           8.8554   -0.4796    1.3189 C.2     2  UNL2        0.0000
     67 N           8.9382   -1.0777    2.5559 N.pl3   2  UNL2        0.0000
     68 N           6.7825    0.2882   10.5174 N.pl3   1  UNL1        0.0000
     69 N           8.0012    4.7573    7.6391 N.pl3   1  UNL1        0.0000
     70 N           6.4187   -4.0420    9.2844 N.pl3   1  UNL1        0.0000
     71 O           7.2345    5.0226    5.0765 O.3     1  UNL1        0.0000
     72 O          -3.0539    1.4237    8.0200 O.3     1  UNL1        0.0000
     73 O           4.3452   -2.4564    9.6957 O.3     1  UNL1        0.0000
     74 O           0.4260    9.8719    3.4226 O.3     1  UNL1        0.0000
     75 O           1.3190    8.5131    5.0021 O.3     1  UNL1        0.0000
     76 O           2.7767   -2.2647    8.0781 O.3     1  UNL1        0.0000
     77 O           8.8242    4.7557    3.4898 O.3     1  UNL1        0.0000
     78 O          -3.9038    2.7798    9.6244 O.3     1  UNL1        0.0000
     79 O           6.1567    4.4091    2.5052 O.3     1  UNL1        0.0000
     80 O          -1.3679    1.9937   10.1096 O.3     1  UNL1        0.0000
     81 O           7.0178    6.7272    2.9532 O.3     1  UNL1        0.0000
     82 O          -3.0562    0.2085   10.6096 O.3     1  UNL1        0.0000
     83 O           1.6596   -2.8372   10.6743 O.3     1  UNL1        0.0000
     84 O           2.9694    9.1219    2.9093 O.3     1  UNL1        0.0000
     85 O           2.5316   -0.5433   10.2080 O.3     1  UNL1        0.0000
     86 O           1.3225    7.3070    2.3989 O.3     1  UNL1        0.0000
     87 O           4.5751    5.0877    5.2443 O.3     1  UNL1        0.0000
     88 O          -1.8362   -1.0225    7.9235 O.3     1  UNL1        0.0000
     89 O           4.0664   -3.6099   11.9620 O.2     1  UNL1        0.0000
     90 O           1.7435   11.0064    1.1444 O.2     1  UNL1        0.0000
     91 O           4.7709   -0.7955   11.9563 O.3     1  UNL1        0.0000
     92 O          -0.4275    9.0940    1.0941 O.3     1  UNL1        0.0000
     93 O           0.0289   -2.2879    7.9912 O.3     1  UNL1        0.0000
     94 O           2.5743    6.1196    5.1176 O.3     1  UNL1        0.0000
     95 O           9.1992    6.4527    1.0833 O.3     1  UNL1        0.0000
     96 O          -4.7481    1.9890   11.9440 O.2     1  UNL1        0.0000
     97 O           8.5001    3.6723    1.1133 O.3     1  UNL1        0.0000
     98 O          -2.5429    3.8491   12.0151 O.3     1  UNL1        0.0000
     99 O           4.2691    6.7356    3.0197 O.3     1  UNL1        0.0000
    100 O          -0.1470   -0.4361   10.0169 O.3     1  UNL1        0.0000
    101 O           6.7480    5.6001    0.0716 O.3     1  UNL1        0.0000
    102 O          -2.2383    1.3023   13.0448 O.3     1  UNL1        0.0000
    103 H           0.8638    5.2270    6.6485 H       1  UNL1        0.0000
    104 H          -0.0453    3.6704    8.4060 H       1  UNL1        0.0000
    105 H           1.4114    1.9116    9.3560 H       1  UNL1        0.0000
    106 H           4.6569    3.2042    6.8269 H       1  UNL1        0.0000
    107 H           3.7469    1.6527    8.5834 H       1  UNL1        0.0000
    108 C           1.8020    2.5801    8.5908 C.ar    1  UNL1        0.0000
    109 C           1.4828    4.4426    7.0787 C.ar    1  UNL1        0.0000
    110 C           3.6326    3.2980    7.1812 C.ar    1  UNL1        0.0000
    111 C           3.1252    2.4368    8.1546 C.ar    1  UNL1        0.0000
    112 C           0.9806    3.5787    8.0529 C.ar    1  UNL1        0.0000
    113 C           2.8136    4.3074    6.6396 C.ar    1  UNL1        0.0000
    114 H           5.7409    9.0694    3.8453 H       1  UNL1        0.0000
    115 H           4.4315   11.0107    4.6503 H       1  UNL1        0.0000
    116 H           7.9990    8.6100    4.7446 H       1  UNL1        0.0000
    117 H          12.4409   -1.8282    6.3785 H       1  UNL1        0.0000
    118 H          -7.0248   10.1428    6.4782 H       1  UNL1        0.0000
    119 C           7.4413    9.4696    5.1127 C.ar    1  UNL1        0.0000
    120 C          12.9911   -2.6946    6.0174 C.3     1  UNL1        0.0000
    121 C           5.4240   10.8276    5.0587 C.ar    1  UNL1        0.0000
    122 C          -8.0188   10.3196    6.0734 C.3     1  UNL1        0.0000
    123 C           6.1613    9.7262    4.6051 C.ar    1  UNL1        0.0000
    124 C          -1.7301   -2.9447    6.5282 C.3     1  UNL1        0.0000
    125 H           4.4229    3.7484   10.4885 H       3  UNL3        0.0000
    126 H           5.2471    3.8228   12.0704 H       3  UNL3        0.0000
    127 H           5.5591    2.4651   10.9544 H       3  UNL3        0.0000
    128 H           1.8524    4.0479   10.6060 H       3  UNL3        0.0000
    129 H           0.1321    5.3855   12.3532 H       3  UNL3        0.0000
    130 H           3.2304    1.6168   11.2434 H       3  UNL3        0.0000
    131 H           4.0202    1.7522   12.8174 H       3  UNL3        0.0000
    132 C           0.9252    4.6713   12.5385 C.2     3  UNL3        0.0000
    133 C           3.6652    2.3302   11.9568 C.3     3  UNL3        0.0000
    134 C           1.7654    4.0104   11.6838 C.2     3  UNL3        0.0000
    135 C           4.7889    3.1516   11.3334 C.3     3  UNL3        0.0000
    136 N           2.5715    3.1917   12.4564 N.pl3   3  UNL3        0.0000
    137 H           5.6365   12.1009    2.7163 H       2  UNL2        0.0000
    138 H           4.3469   12.8590    1.7375 H       2  UNL2        0.0000
    139 H           4.1753   11.1587    2.2624 H       2  UNL2        0.0000
    140 H           7.0076   10.0878    1.4820 H       2  UNL2        0.0000
    141 C           4.8852   11.9301    1.9401 C.3     2  UNL2        0.0000
    142 C           6.5504   10.5933    0.6399 C.2     2  UNL2        0.0000
    143 N           5.5522   11.4941    0.7089 N.2     2  UNL2        0.0000
    144 TI         -7.1809   -5.1237   24.3754 Ti      1  UNL1        0.0000
    145 TI          3.4902   -1.8559   14.9547 Ti      1  UNL1        0.0000
    146 TI         -2.9599   -8.9127   22.5273 Ti      1  UNL1        0.0000
    147 TI         -1.8009    0.3034   16.7587 Ti      1  UNL1        0.0000
    148 TI         -2.8679    1.9482   14.8622 Ti      1  UNL1        0.0000
    149 TI         -1.0531   -9.1035   24.4698 Ti      1  UNL1        0.0000
    150 TI         -6.1824   -6.8232   22.4763 Ti      1  UNL1        0.0000
    151 TI          1.5034   -1.6250   16.8136 Ti      1  UNL1        0.0000
    152 H          -6.8162   -1.2112   24.1586 H       1  UNL1        0.0000
    153 H           4.4362   -5.7318   15.2654 H       1  UNL1        0.0000
    154 H         -11.1141   -6.0173   24.0139 H       1  UNL1        0.0000
    155 H           6.8016    0.2647   15.1394 H       1  UNL1        0.0000
    156 H           0.0602  -13.1011   24.0728 H       1  UNL1        0.0000
    157 H          -6.9016    1.2170   15.2060 H       1  UNL1        0.0000
    158 H          -6.6398   -6.9073   26.0944 H       1  UNL1        0.0000
    159 H           1.6147   -2.1617   13.2649 H       1  UNL1        0.0000
    160 H          -0.5511   -9.7458   18.9550 H       1  UNL1        0.0000
    161 H          -3.5669    2.0750   20.3897 H       1  UNL1        0.0000
    162 H         -10.3725   -3.5780   22.1477 H       1  UNL1        0.0000
    163 H           6.3287   -3.8458   17.2425 H       1  UNL1        0.0000
    164 H          -8.0411   -4.9405   18.7991 H       1  UNL1        0.0000
    165 H          -6.0165    3.6642   17.2352 H       1  UNL1        0.0000
    166 H          -2.5791    5.0618   15.7198 H       1  UNL1        0.0000
    167 H           4.3555   -7.7564   16.4660 H       1  UNL1        0.0000
    168 H           0.2941    0.0582   15.4080 H       1  UNL1        0.0000
    169 H          -4.0970   -7.1046   23.8294 H       1  UNL1        0.0000
    170 H           3.1026   -7.0204   22.8387 H       1  UNL1        0.0000
    171 H           1.6430   -7.5417   23.5936 H       1  UNL1        0.0000
    172 H           3.5159   -2.5682   21.7428 H       1  UNL1        0.0000
    173 H           2.9250   -2.2277   20.1279 H       1  UNL1        0.0000
    174 H           2.7855  -11.9890   22.6444 H       1  UNL1        0.0000
    175 H           1.4714  -10.9342   23.1105 H       1  UNL1        0.0000
    176 C           4.1097   -2.5800   17.8139 C.3     1  UNL1        0.0000
    177 C          -8.1659   -4.8925   21.5341 C.3     1  UNL1        0.0000
    178 C          -0.3510   -9.8318   21.5868 C.3     1  UNL1        0.0000
    179 C          -3.7990    2.2042   17.7315 C.3     1  UNL1        0.0000
    180 C           5.0317   -3.1540   18.8033 C.ar    1  UNL1        0.0000
    181 C          -9.1244   -4.2991   20.5632 C.2     1  UNL1        0.0000
    182 C           0.6047  -10.4119   20.6336 C.2     1  UNL1        0.0000
    183 C          -4.7052    2.8184   18.7372 C.ar    1  UNL1        0.0000
    184 C           4.7884   -3.0894   20.2112 C.ar    1  UNL1        0.0000
    185 C          -8.9117   -4.4098   19.1738 C.3     1  UNL1        0.0000
    186 C           1.7624  -11.1330   21.0793 C.2     1  UNL1        0.0000
    187 C          -5.8286    3.5533   18.2994 C.ar    1  UNL1        0.0000
    188 C          -4.4373    2.6550   20.0904 C.ar    1  UNL1        0.0000
    189 C           0.3448  -10.2868   19.2512 C.3     1  UNL1        0.0000
    190 C           6.1864   -3.8125   18.3203 C.ar    1  UNL1        0.0000
    191 C         -10.2452   -3.6460   21.0689 C.2     1  UNL1        0.0000
    192 C           4.4025   -5.6509   13.1216 C.2     1  UNL1        0.0000
    193 C          -2.4735    5.9082   13.1989 C.ar    1  UNL1        0.0000
    194 C           2.3715   -7.0438   26.1001 C.ar    1  UNL1        0.0000
    195 C         -11.0323   -5.9674   26.1570 C.2     1  UNL1        0.0000
    196 C          -0.9621   -2.0147   18.7159 C.3     1  UNL1        0.0000
    197 C          -5.4575   -9.2726   20.6505 C.3     1  UNL1        0.0000
    198 C          -0.0966  -11.4408   26.2114 C.2     1  UNL1        0.0000
    199 C          -2.5165    4.4724   13.1600 C.3     1  UNL1        0.0000
    200 C           1.0963   -7.7055   26.1533 C.3     1  UNL1        0.0000
    201 C          -9.6451   -5.5045   26.1743 C.2     1  UNL1        0.0000
    202 C           4.4720   -6.3197   14.3501 C.2     1  UNL1        0.0000
    203 C          -6.8207   -0.6239   25.0733 C.ar    1  UNL1        0.0000
    204 C          -8.6731    0.4913   14.2205 C.2     1  UNL1        0.0000
    205 C         -11.6639   -6.2172   24.9321 C.3     1  UNL1        0.0000
    206 C           3.0492   -6.7496   24.8637 C.ar    1  UNL1        0.0000
    207 C          -7.4017    1.0158   14.2627 C.2     1  UNL1        0.0000
    208 C           0.1254  -13.6277   25.0209 C.3     1  UNL1        0.0000
    209 C           4.5429   -7.7188   14.4292 C.2     1  UNL1        0.0000
    210 N           4.6257   -8.3169   15.6662 N.pl3   1  UNL1        0.0000
    211 N           2.4699   -6.9510   23.6277 N.pl3   1  UNL1        0.0000
    212 N           3.6886   -2.4819   20.7494 N.pl3   1  UNL1        0.0000
    213 N           2.1061  -11.2812   22.3946 N.pl3   1  UNL1        0.0000
    214 O           2.9220   -2.2166   18.1868 O.3     1  UNL1        0.0000
    215 O          -7.3665   -5.8155   21.1303 O.3     1  UNL1        0.0000
    216 O           0.0327   -9.6956   22.8060 O.3     1  UNL1        0.0000
    217 O          -3.8865    2.6327   16.5329 O.3     1  UNL1        0.0000
    218 O          -2.9936    1.2739   18.1124 O.3     1  UNL1        0.0000
    219 O          -1.5358   -9.5039   21.1883 O.3     1  UNL1        0.0000
    220 O           4.5117   -2.4835   16.6000 O.3     1  UNL1        0.0000
    221 O          -8.2163   -4.4594   22.7347 O.3     1  UNL1        0.0000
    222 O           1.8441   -2.8301   15.6155 O.3     1  UNL1        0.0000
    223 O          -5.6805   -5.2455   23.2199 O.3     1  UNL1        0.0000
    224 O           2.7052   -0.5120   16.0635 O.3     1  UNL1        0.0000
    225 O          -7.3688   -7.0307   23.7199 O.3     1  UNL1        0.0000
    226 O          -2.6529  -10.0764   23.7846 O.3     1  UNL1        0.0000
    227 O          -1.3431    1.8827   16.0195 O.3     1  UNL1        0.0000
    228 O          -1.7809   -7.7825   23.3183 O.3     1  UNL1        0.0000
    229 O          -2.9900    0.0678   15.5092 O.3     1  UNL1        0.0000
    230 O           0.2626   -2.1515   18.3546 O.3     1  UNL1        0.0000
    231 O          -6.1487   -8.2617   21.0338 O.3     1  UNL1        0.0000
    232 O          -0.2462  -10.8492   25.0723 O.2     1  UNL1        0.0000
    233 O          -2.5690    3.7672   14.2546 O.3     1  UNL1        0.0000
    234 O           0.4584   -8.0347   25.0666 O.3     1  UNL1        0.0000
    235 O          -4.7400    1.8548   14.2044 O.2     1  UNL1        0.0000
    236 O          -4.2836   -9.5271   21.1014 O.3     1  UNL1        0.0000
    237 O          -1.7383   -1.1196   18.2279 O.3     1  UNL1        0.0000
    238 O           4.8866   -0.7865   14.1936 O.3     1  UNL1        0.0000
    239 O          -9.0607   -5.2502   25.0543 O.2     1  UNL1        0.0000
    240 O           4.1876   -3.5669   14.2236 O.2     1  UNL1        0.0000
    241 O          -6.8555   -3.3901   25.1254 O.3     1  UNL1        0.0000
    242 O          -0.0434   -0.5036   16.1299 O.3     1  UNL1        0.0000
    243 O          -4.4596   -7.6753   23.1272 O.3     1  UNL1        0.0000
    244 O           2.4354   -1.6391   13.1819 O.3     1  UNL1        0.0000
    245 O          -6.5508   -5.9369   26.1551 O.3     1  UNL1        0.0000
    246 H          -3.4488   -2.0122   19.7588 H       1  UNL1        0.0000
    247 H          -4.3578   -3.5688   21.5163 H       1  UNL1        0.0000
    248 H          -2.9011   -5.3276   22.4663 H       1  UNL1        0.0000
    249 H           0.3444   -4.0350   19.9372 H       1  UNL1        0.0000
    250 H          -0.5656   -5.5865   21.6937 H       1  UNL1        0.0000
    251 C          -2.5105   -4.6591   21.7011 C.ar    1  UNL1        0.0000
    252 C          -2.8297   -2.7966   20.1890 C.ar    1  UNL1        0.0000
    253 C          -0.6799   -3.9412   20.2915 C.ar    1  UNL1        0.0000
    254 C          -1.1874   -4.8024   21.2649 C.ar    1  UNL1        0.0000
    255 C          -3.3320   -3.6605   21.1632 C.ar    1  UNL1        0.0000
    256 C          -1.4989   -2.9318   19.7498 C.ar    1  UNL1        0.0000
    257 H           1.4284    1.8302   16.9556 H       1  UNL1        0.0000
    258 H           0.1190    3.7715   17.7606 H       1  UNL1        0.0000
    259 H           3.6865    1.3708   17.8549 H       1  UNL1        0.0000
    260 H           8.1283   -9.0674   19.4887 H       1  UNL1        0.0000
    261 H         -11.3374    2.9036   19.5885 H       1  UNL1        0.0000
    262 C           3.1287    2.2304   18.2230 C.ar    1  UNL1        0.0000
    263 C           8.6786   -9.9338   19.1277 C.3     1  UNL1        0.0000
    264 C           1.1114    3.5884   18.1689 C.ar    1  UNL1        0.0000
    265 C         -12.3314    3.0804   19.1837 C.3     1  UNL1        0.0000
    266 C           1.8488    2.4870   17.7154 C.ar    1  UNL1        0.0000
    267 C          -6.0426  -10.1839   19.6385 C.3     1  UNL1        0.0000
    268 H           0.1103   -3.4908   23.5988 H       4  UNL4        0.0000
    269 H           0.9346   -3.4164   25.1807 H       4  UNL4        0.0000
    270 H           1.2465   -4.7741   24.0647 H       4  UNL4        0.0000
    271 H          -2.4602   -3.1913   23.7162 H       4  UNL4        0.0000
    272 H          -4.1804   -1.8537   25.4635 H       4  UNL4        0.0000
    273 H          -1.0821   -5.6224   24.3536 H       4  UNL4        0.0000
    274 H          -0.2923   -5.4870   25.9277 H       4  UNL4        0.0000
    275 C          -3.3873   -2.5679   25.6488 C.2     4  UNL4        0.0000
    276 C          -0.6474   -4.9090   25.0671 C.3     4  UNL4        0.0000
    277 C          -2.5472   -3.2288   24.7940 C.2     4  UNL4        0.0000
    278 C           0.4764   -4.0876   24.4437 C.3     4  UNL4        0.0000
    279 N          -1.7410   -4.0475   25.5666 N.pl3   4  UNL4        0.0000
    280 H           1.3240    4.8617   15.8266 H       3  UNL3        0.0000
    281 H           0.0344    5.6198   14.8478 H       3  UNL3        0.0000
    282 H          -0.1372    3.9195   15.3727 H       3  UNL3        0.0000
    283 H           2.6951    2.8486   14.5923 H       3  UNL3        0.0000
    284 C           0.5727    4.6909   15.0504 C.3     3  UNL3        0.0000
    285 C           2.2379    3.3541   13.7501 C.3     3  UNL3        0.0000
    286 N           1.2396    4.2549   13.8192 N.pl3   3  UNL3        0.0000
    287 TI        -11.4934  -12.3629   37.4857 Ti      1  UNL1        0.0000
    288 TI         -0.8224   -9.0951   28.0650 Ti      1  UNL1        0.0000
    289 TI         -7.2724  -16.1519   35.6375 Ti      1  UNL1        0.0000
    290 TI         -6.1134   -6.9358   29.8690 Ti      1  UNL1        0.0000
    291 TI         -7.1804   -5.2910   27.9725 Ti      1  UNL1        0.0000
    292 TI         -5.3656  -16.3427   37.5800 Ti      1  UNL1        0.0000
    293 TI        -10.4950  -14.0624   35.5866 Ti      1  UNL1        0.0000
    294 TI         -2.8091   -8.8642   29.9238 Ti      1  UNL1        0.0000
    295 H         -11.1287   -8.4504   37.2689 H       3  UNL3        0.0000
    296 H           0.1237  -12.9710   28.3757 H       1  UNL1        0.0000
    297 H         -15.4267  -13.2565   37.1242 H       1  UNL1        0.0000
    298 H           2.4890   -6.9745   28.2496 H       1  UNL1        0.0000
    299 H          -4.2524  -20.3403   37.1831 H       4  UNL4        0.0000
    300 H         -11.2141   -6.0222   28.3163 H       1  UNL1        0.0000
    301 H         -10.9523  -14.1465   39.2047 H       1  UNL1        0.0000
    302 H          -2.6978   -9.4009   26.3751 H       1  UNL1        0.0000
    303 H          -4.8637  -16.9850   32.0653 H       1  UNL1        0.0000
    304 H          -7.8795   -5.1642   33.5000 H       1  UNL1        0.0000
    305 H         -14.6850  -10.8172   35.2580 H       1  UNL1        0.0000
    306 H           2.0161  -11.0850   30.3527 H       1  UNL1        0.0000
    307 H         -12.3536  -12.1797   31.9094 H       1  UNL1        0.0000
    308 H         -10.3290   -3.5750   30.3455 H       1  UNL1        0.0000
    309 H          -6.8917   -2.1774   28.8301 H       1  UNL1        0.0000
    310 H           0.0429  -14.9956   29.5763 H       1  UNL1        0.0000
    311 H          -4.0184   -7.1810   28.5183 H       1  UNL1        0.0000
    312 H          -8.4096  -14.3438   36.9397 H       1  UNL1        0.0000
    313 H          -1.2099  -14.2596   35.9489 H       1  UNL1        0.0000
    314 H          -2.6696  -14.7809   36.7038 H       1  UNL1        0.0000
    315 H          -0.7966   -9.8074   34.8530 H       1  UNL1        0.0000
    316 H          -1.3875   -9.4669   33.2382 H       1  UNL1        0.0000
    317 H          -1.5270  -19.2282   35.7547 H       1  UNL1        0.0000
    318 H          -2.8411  -18.1734   36.2207 H       1  UNL1        0.0000
    319 C          -0.2029   -9.8192   30.9242 C.3     1  UNL1        0.0000
    320 C         -12.4784  -12.1317   34.6444 C.3     1  UNL1        0.0000
    321 C          -4.6636  -17.0710   34.6971 C.3     1  UNL1        0.0000
    322 C          -8.1115   -5.0350   30.8418 C.3     1  UNL1        0.0000
    323 C           0.7192  -10.3932   31.9136 C.ar    1  UNL1        0.0000
    324 C         -13.4369  -11.5383   33.6734 C.2     1  UNL1        0.0000
    325 C          -3.7078  -17.6511   33.7439 C.2     1  UNL1        0.0000
    326 C          -9.0177   -4.4208   31.8474 C.ar    1  UNL1        0.0000
    327 C           0.4759  -10.3286   33.3215 C.ar    1  UNL1        0.0000
    328 C         -13.2243  -11.6490   32.2841 C.3     1  UNL1        0.0000
    329 C          -2.5501  -18.3722   34.1896 C.2     1  UNL1        0.0000
    330 C         -10.1412   -3.6859   31.4097 C.ar    1  UNL1        0.0000
    331 C          -8.7499   -4.5842   33.2006 C.ar    1  UNL1        0.0000
    332 C          -3.9677  -17.5261   32.3615 C.3     1  UNL1        0.0000
    333 C           1.8738  -11.0517   31.4306 C.ar    1  UNL1        0.0000
    334 C         -14.5577  -10.8852   34.1792 C.2     1  UNL1        0.0000
    335 C           0.0900  -12.8901   26.2319 C.2     1  UNL1        0.0000
    336 C          -6.7860   -1.3310   26.3092 C.ar    1  UNL1        0.0000
    337 C          -1.9410  -14.2830   39.2104 C.2     1  UNL1        0.0000
    338 C         -15.3448  -13.2066   39.2673 C.2     1  UNL1        0.0000
    339 C          -5.2746   -9.2539   31.8261 C.3     1  UNL1        0.0000
    340 C          -9.7701  -16.5118   33.7608 C.3     1  UNL1        0.0000
    341 C          -4.4091  -18.6800   39.3217 C.3     1  UNL1        0.0000
    342 C          -6.8291   -2.7668   26.2702 C.3     1  UNL1        0.0000
    343 C          -3.2163  -14.9447   39.2636 C.2     1  UNL1        0.0000
    344 C         -13.9577  -12.7437   39.2845 C.2     1  UNL1        0.0000
    345 C           0.1595  -13.5589   27.4604 C.2     1  UNL1        0.0000
    346 C         -11.1332   -7.8631   38.1835 C.2     3  UNL3        0.0000
    347 C         -12.9856   -6.7479   27.3308 C.2     1  UNL1        0.0000
    348 C         -15.9764  -13.4564   38.0424 C.3     1  UNL1        0.0000
    349 C          -1.2634  -13.9888   37.9739 C.2     1  UNL1        0.0000
    350 C         -11.7142   -6.2234   27.3730 C.2     1  UNL1        0.0000
    351 C          -4.1871  -20.8669   38.1312 C.3     5  UNL5        0.0000
    352 C           0.2304  -14.9580   27.5394 C.2     1  UNL1        0.0000
    353 N           0.3132  -15.5561   28.7764 N.pl3   1  UNL1        0.0000
    354 N          -1.8426  -14.1902   36.7380 N.pl3   1  UNL1        0.0000
    355 N          -0.6239   -9.7211   33.8596 N.pl3   1  UNL1        0.0000
    356 N          -2.2064  -18.5204   35.5049 N.pl3   1  UNL1        0.0000
    357 O          -1.3905   -9.4558   31.2971 O.3     1  UNL1        0.0000
    358 O         -11.6790  -13.0547   34.2406 O.3     1  UNL1        0.0000
    359 O          -4.2798  -16.9348   35.9163 O.3     1  UNL1        0.0000
    360 O          -8.1990   -4.6065   29.6432 O.3     1  UNL1        0.0000
    361 O          -7.3061   -5.9653   31.2227 O.3     1  UNL1        0.0000
    362 O          -5.8483  -16.7431   34.2986 O.3     1  UNL1        0.0000
    363 O           0.1992   -9.7227   29.7103 O.3     1  UNL1        0.0000
    364 O         -12.5289  -11.6986   35.8450 O.3     1  UNL1        0.0000
    365 O          -2.4684  -10.0693   28.7258 O.3     1  UNL1        0.0000
    366 O          -9.9930  -12.4847   36.3302 O.3     1  UNL1        0.0000
    367 O          -1.6073   -7.7512   29.1737 O.3     1  UNL1        0.0000
    368 O         -11.6813  -14.2699   36.8302 O.3     1  UNL1        0.0000
    369 O          -6.9654  -17.3156   36.8949 O.3     1  UNL1        0.0000
    370 O          -5.6557   -5.3565   29.1298 O.3     1  UNL1        0.0000
    371 O          -6.0934  -15.0217   36.4286 O.3     1  UNL1        0.0000
    372 O          -7.3026   -7.1714   28.6194 O.3     1  UNL1        0.0000
    373 O          -4.0500   -9.3907   31.4649 O.3     1  UNL1        0.0000
    374 O         -10.4612  -15.5009   34.1441 O.3     1  UNL1        0.0000
    375 O          -4.5587  -18.0884   38.1826 O.3     1  UNL1        0.0000
    376 O          -6.8816   -3.4720   27.3649 O.3     1  UNL1        0.0000
    377 O          -3.8541  -15.2739   38.1769 O.2     1  UNL1        0.0000
    378 O          -9.0526   -5.3844   27.3147 O.2     1  UNL1        0.0000
    379 O          -8.5962  -16.7663   34.2117 O.3     1  UNL1        0.0000
    380 O          -6.0508   -8.3588   31.3382 O.3     1  UNL1        0.0000
    381 O           0.5741   -8.0257   27.3039 O.3     1  UNL1        0.0000
    382 O         -13.3732  -12.4894   38.1645 O.2     1  UNL1        0.0000
    383 O          -0.1249  -10.8061   27.3338 O.2     1  UNL1        0.0000
    384 O         -11.1680  -10.6293   38.2357 O.3     1  UNL1        0.0000
    385 O          -4.3559   -7.7428   29.2402 O.3     1  UNL1        0.0000
    386 O          -8.7721  -14.9145   36.2375 O.3     1  UNL1        0.0000
    387 O          -1.8771   -8.8783   26.2921 O.3     1  UNL1        0.0000
    388 O         -10.8634  -13.1761   39.2653 O.3     1  UNL1        0.0000
    389 H          -7.7613   -9.2514   32.8691 H       1  UNL1        0.0000
    390 H          -8.6704  -10.8080   34.6266 H       1  UNL1        0.0000
    391 H          -7.2136  -12.5668   35.5766 H       1  UNL1        0.0000
    392 H          -3.9682  -11.2742   33.0474 H       1  UNL1        0.0000
    393 H          -4.8782  -12.8257   34.8039 H       1  UNL1        0.0000
    394 C          -6.8230  -11.8983   34.8114 C.ar    1  UNL1        0.0000
    395 C          -7.1422  -10.0358   33.2993 C.ar    1  UNL1        0.0000
    396 C          -4.9925  -11.1804   33.4017 C.ar    1  UNL1        0.0000
    397 C          -5.4999  -12.0416   34.3751 C.ar    1  UNL1        0.0000
    398 C          -7.6445  -10.8997   34.2734 C.ar    1  UNL1        0.0000
    399 C          -5.8115  -10.1710   32.8601 C.ar    1  UNL1        0.0000
    400 H          -2.8841   -5.4090   30.0659 H       1  UNL1        0.0000
    401 H          -4.1935   -3.4677   30.8709 H       1  UNL1        0.0000
    402 H          -0.6261   -5.8684   30.9651 H       1  UNL1        0.0000
    403 H           3.8158  -16.3066   32.5990 H       1  UNL1        0.0000
    404 H         -15.6499   -4.3356   32.6988 H       1  UNL1        0.0000
    405 C          -1.1838   -5.0088   31.3332 C.ar    1  UNL1        0.0000
    406 C           4.3660  -17.1730   32.2379 C.3     1  UNL1        0.0000
    407 C          -3.2011   -3.6508   31.2792 C.ar    1  UNL1        0.0000
    408 C         -16.6439   -4.1588   32.2939 C.3     1  UNL1        0.0000
    409 C          -2.4637   -4.7522   30.8257 C.ar    1  UNL1        0.0000
    410 C         -10.3551  -17.4231   32.7488 C.3     1  UNL1        0.0000
    411 H          -4.2022  -10.7300   36.7090 H       6  UNL6        0.0000
    412 H          -3.3780  -10.6556   38.2909 H       6  UNL6        0.0000
    413 H          -3.0660  -12.0133   37.1749 H       6  UNL6        0.0000
    414 H          -6.7727  -10.4305   36.8265 H       6  UNL6        0.0000
    415 H          -8.4929   -9.0929   38.5738 H       6  UNL6        0.0000
    416 H          -5.3946  -12.8616   37.4639 H       6  UNL6        0.0000
    417 H          -4.6049  -12.7262   39.0380 H       6  UNL6        0.0000
    418 C          -7.6998   -9.8071   38.7591 C.3     6  UNL6        0.0000
    419 C          -4.9599  -12.1483   38.1774 C.3     6  UNL6        0.0000
    420 C          -6.8597  -10.4680   37.9043 C.2     6  UNL6        0.0000
    421 C          -3.8362  -11.3268   37.5540 C.3     6  UNL6        0.0000
    422 N          -6.0536  -11.2867   38.6769 N.2     6  UNL6        0.0000
    423 H          -2.9886   -2.3775   28.9369 H       4  UNL4        0.0000
    424 H          -4.2782   -1.6194   27.9581 H       4  UNL4        0.0000
    425 H          -4.4498   -3.3198   28.4830 H       4  UNL4        0.0000
    426 H          -1.6174   -4.3906   27.7026 H       4  UNL4        0.0000
    427 C          -3.7399   -2.5483   28.1606 C.3     4  UNL4        0.0000
    428 C          -2.0746   -3.8852   26.8604 C.3     4  UNL4        0.0000
    429 N          -3.0729   -2.9843   26.9294 N.pl3   4  UNL4        0.0000
    430 TI         -9.8903   16.4923   11.2652 Ti      1  UNL1        0.0000
    431 TI          0.7808   19.7601    1.8444 Ti      1  UNL1        0.0000
    432 TI         -5.6693   12.7033    9.4170 Ti      1  UNL1        0.0000
    433 TI         -4.5103   21.9194    3.6484 Ti      1  UNL1        0.0000
    434 TI         -5.5773   23.5642    1.7520 Ti      1  UNL1        0.0000
    435 TI         -3.7625   12.5125   11.3595 Ti      1  UNL1        0.0000
    436 TI         -8.8918   14.7928    9.3660 Ti      1  UNL1        0.0000
    437 TI         -1.2060   19.9910    3.7033 Ti      1  UNL1        0.0000
    438 H          -9.5256   20.4048   11.0484 H       1  UNL1        0.0000
    439 H           1.7268   15.8842    2.1552 H       1  UNL1        0.0000
    440 H         -13.8235   15.5988   10.9036 H       1  UNL1        0.0000
    441 H           4.0922   21.8807    2.0291 H      18  UNL18       0.0000
    442 H          -2.6492    8.5149   10.9625 H       1  UNL1        0.0000
    443 H          -9.6110   22.8330    2.0957 H       5  UNL5        0.0000
    444 H          -9.3492   14.7087   12.9842 H       1  UNL1        0.0000
    445 H          -1.0947   19.4543    0.1546 H       1  UNL1        0.0000
    446 H          -3.2605   11.8702    5.8447 H       1  UNL1        0.0000
    447 H          -6.2764   23.6910    7.2795 H       1  UNL1        0.0000
    448 H         -13.0819   18.0380    9.0374 H       1  UNL1        0.0000
    449 H           3.6193   17.7702    4.1322 H       1  UNL1        0.0000
    450 H         -10.7505   16.6756    5.6889 H       1  UNL1        0.0000
    451 H          -8.7259   25.2802    4.1249 H       1  UNL1        0.0000
    452 H          -5.2885   26.6778    2.6096 H       1  UNL1        0.0000
    453 H           1.6461   13.8596    3.3557 H       1  UNL1        0.0000
    454 H          -2.4153   21.6742    2.2978 H       1  UNL1        0.0000
    455 H          -6.8064   14.5114   10.7192 H       1  UNL1        0.0000
    456 H           0.3932   14.5956    9.7284 H       1  UNL1        0.0000
    457 H          -1.0665   14.0743   10.4833 H       1  UNL1        0.0000
    458 H           0.8065   19.0478    8.6325 H       1  UNL1        0.0000
    459 H           0.2156   19.3883    7.0176 H       1  UNL1        0.0000
    460 H           0.0761    9.6270    9.5342 H       1  UNL1        0.0000
    461 H          -1.2380   10.6818   10.0002 H       1  UNL1        0.0000
    462 C           1.4003   19.0360    4.7037 C.3     1  UNL1        0.0000
    463 C         -10.8753   16.7235    8.4239 C.3     1  UNL1        0.0000
    464 C          -3.0604   11.7842    8.4766 C.3     1  UNL1        0.0000
    465 C          -6.5084   23.8202    4.6213 C.3     1  UNL1        0.0000
    466 C           2.3223   18.4620    5.6930 C.ar    1  UNL1        0.0000
    467 C         -11.8338   17.3169    7.4529 C.2     1  UNL1        0.0000
    468 C          -2.1047   11.2041    7.5233 C.ar    1  UNL1        0.0000
    469 C          -7.4146   24.4344    5.6269 C.ar    1  UNL1        0.0000
    470 C           2.0790   18.5266    7.1009 C.ar    1  UNL1        0.0000
    471 C         -11.6211   17.2062    6.0635 C.3     1  UNL1        0.0000
    472 C          -0.9470   10.4830    7.9691 C.ar    1  UNL1        0.0000
    473 C          -8.5380   25.1693    5.1891 C.ar    1  UNL1        0.0000
    474 C          -7.1467   24.2710    6.9801 C.ar    1  UNL1        0.0000
    475 C          -2.3646   11.3292    6.1410 C.ar    1  UNL1        0.0000
    476 C           3.4770   17.8035    5.2100 C.ar    1  UNL1        0.0000
    477 C         -12.9546   17.9700    7.9586 C.2     1  UNL1        0.0000
    478 C           1.6931   15.9651    0.0113 C.3     1  UNL1        0.0000
    479 C          -5.1829   27.5243    0.0887 C.2     1  UNL1        0.0000
    480 C          -0.3379   14.5722   12.9898 C.ar    1  UNL1        0.0000
    481 C         -13.7417   15.6486   13.0467 C.2     1  UNL1        0.0000
    482 C          -3.6715   19.6013    5.6056 C.3     1  UNL1        0.0000
    483 C          -8.1669   12.3434    7.5402 C.2     1  UNL1        0.0000
    484 C          -2.8060   10.1752   13.1012 C.3     1  UNL1        0.0000
    485 C          -5.2259   26.0884    0.0497 C.2     1  UNL1        0.0000
    486 C          -1.6132   13.9105   13.0430 C.3     1  UNL1        0.0000
    487 C         -12.3545   16.1115   13.0640 C.2     1  UNL1        0.0000
    488 C           1.7626   15.2963    1.2398 C.2     1  UNL1        0.0000
    489 C          -9.5301   20.9921   11.9630 C.ar    1  UNL1        0.0000
    490 C         -11.3825   22.1073    1.1102 C.2     5  UNL5        0.0000
    491 C         -14.3733   15.3988   11.8218 C.3     1  UNL1        0.0000
    492 C           0.3398   14.8664   11.7534 C.ar    1  UNL1        0.0000
    493 C         -10.1111   22.6318    1.1525 C.2     5  UNL5        0.0000
    494 C          -2.5840    7.9883   11.9106 C.ar    1  UNL1        0.0000
    495 C           1.8335   13.8972    1.3189 C.2     1  UNL1        0.0000
    496 N           1.9163   13.2992    2.5559 N.pl3   1  UNL1        0.0000
    497 N          -0.2395   14.6650   10.5174 N.pl3   1  UNL1        0.0000
    498 N           0.9792   19.1342    7.6391 N.pl3   1  UNL1        0.0000
    499 N          -0.6033   10.3348    9.2844 N.pl3   1  UNL1        0.0000
    500 O           0.2126   19.3994    5.0765 O.3     1  UNL1        0.0000
    501 O         -10.0759   15.8005    8.0200 O.3     1  UNL1        0.0000
    502 O          -2.6767   11.9204    9.6957 O.3     1  UNL1        0.0000
    503 O          -6.5959   24.2487    3.4226 O.3     1  UNL1        0.0000
    504 O          -5.7030   22.8899    5.0021 O.3     1  UNL1        0.0000
    505 O          -4.2452   12.1121    8.0781 O.3     1  UNL1        0.0000
    506 O           1.8023   19.1325    3.4898 O.3     1  UNL1        0.0000
    507 O         -10.9257   17.1566    9.6244 O.3     1  UNL1        0.0000
    508 O          -0.8653   18.7859    2.5052 O.3     1  UNL1        0.0000
    509 O          -8.3899   16.3706   10.1096 O.3     1  UNL1        0.0000
    510 O          -0.0042   21.1040    2.9532 O.3     1  UNL1        0.0000
    511 O         -10.0782   14.5853   10.6096 O.3     1  UNL1        0.0000
    512 O          -5.3623   11.5396   10.6743 O.3     1  UNL1        0.0000
    513 O          -4.0525   23.4987    2.9093 O.3     1  UNL1        0.0000
    514 O          -4.4903   13.8335   10.2080 O.3     1  UNL1        0.0000
    515 O          -5.6994   21.6838    2.3989 O.3     1  UNL1        0.0000
    516 O          -2.4468   19.4645    5.2443 O.3     1  UNL1        0.0000
    517 O          -8.8581   13.3543    7.9235 O.2     1  UNL1        0.0000
    518 O          -2.9556   10.7669   11.9620 O.3     1  UNL1        0.0000
    519 O          -5.2784   25.3832    1.1444 O.2     1  UNL1        0.0000
    520 O          -2.2510   13.5813   11.9563 O.3     1  UNL1        0.0000
    521 O          -7.4494   23.4708    1.0941 O.3     1  UNL1        0.0000
    522 O          -6.9930   12.0889    7.9912 O.2     1  UNL1        0.0000
    523 O          -4.4477   20.4964    5.1176 O.3     1  UNL1        0.0000
    524 O           2.1772   20.8295    1.0833 O.3     1  UNL1        0.0000
    525 O         -11.7701   16.3658   11.9440 O.2     1  UNL1        0.0000
    526 O           1.4782   18.0491    1.1133 O.3     1  UNL1        0.0000
    527 O          -9.5649   18.2259   12.0151 O.3     1  UNL1        0.0000
    528 O          -2.7528   21.1124    3.0197 O.3     1  UNL1        0.0000
    529 O          -7.1690   13.9407   10.0169 O.3     1  UNL1        0.0000
    530 O          -0.2740   19.9769    0.0716 O.3     1  UNL1        0.0000
    531 O          -9.2602   15.6791   13.0448 O.3     1  UNL1        0.0000
    532 H          -6.1582   19.6038    6.6485 H       1  UNL1        0.0000
    533 H          -7.0672   18.0472    8.4060 H       1  UNL1        0.0000
    534 H          -5.6105   16.2884    9.3560 H       1  UNL1        0.0000
    535 H          -2.3650   17.5810    6.8269 H       1  UNL1        0.0000
    536 H          -3.2750   16.0295    8.5834 H       1  UNL1        0.0000
    537 C          -5.2199   16.9569    8.5908 C.ar    1  UNL1        0.0000
    538 C          -5.5391   18.8194    7.0787 C.ar    1  UNL1        0.0000
    539 C          -3.3893   17.6748    7.1812 C.ar    1  UNL1        0.0000
    540 C          -3.8968   16.8136    8.1546 C.ar    1  UNL1        0.0000
    541 C          -6.0414   17.9555    8.0529 C.ar    1  UNL1        0.0000
    542 C          -4.2083   18.6842    6.6396 C.ar    1  UNL1        0.0000
    543 H          -1.2810   23.4462    3.8453 H       1  UNL1        0.0000
    544 H          -2.5904   25.3875    4.6503 H       1  UNL1        0.0000
    545 H           0.9771   22.9868    4.7446 H       1  UNL1        0.0000
    546 H           5.4189   12.5486    6.3785 H       1  UNL1        0.0000
    547 H         -14.0468   24.5196    6.4782 H       1  UNL1        0.0000
    548 C           0.4193   23.8465    5.1127 C.ar    1  UNL1        0.0000
    549 C           5.9692   11.6822    6.0174 C.ar    1  UNL1        0.0000
    550 C          -1.5980   25.2044    5.0587 C.ar    1  UNL1        0.0000
    551 C         -15.0408   24.6964    6.0734 C.3     1  UNL1        0.0000
    552 C          -0.8606   24.1031    4.6051 C.ar    1  UNL1        0.0000
    553 C          -8.7520   11.4321    6.5282 C.2     1  UNL1        0.0000
    554 H          -2.5991   18.1253   10.4885 H       7  UNL7        0.0000
    555 H          -1.7749   18.1996   12.0704 H       7  UNL7        0.0000
    556 H          -1.4629   16.8419   10.9544 H       7  UNL7        0.0000
    557 H          -5.1696   18.4247   10.6060 H       7  UNL7        0.0000
    558 H          -6.8898   19.7623   12.3532 H       7  UNL7        0.0000
    559 H          -3.7915   15.9936   11.2434 H       7  UNL7        0.0000
    560 H          -3.0018   16.1290   12.8174 H       7  UNL7        0.0000
    561 C          -6.0967   19.0481   12.5385 C.2     7  UNL7        0.0000
    562 C          -3.3568   16.7070   11.9568 C.3     7  UNL7        0.0000
    563 C          -5.2566   18.3872   11.6838 C.2     7  UNL7        0.0000
    564 C          -2.2330   17.5284   11.3334 C.3     7  UNL7        0.0000
    565 N          -4.4504   17.5685   12.4564 N.pl3   7  UNL7        0.0000
    566 H          -1.3854   26.4778    2.7163 H       6  UNL6        0.0000
    567 H          -2.6750   27.2359    1.7375 H       6  UNL6        0.0000
    568 H          -2.8467   25.5355    2.2624 H       6  UNL6        0.0000
    569 H          -0.0143   24.4646    1.4820 H       6  UNL6        0.0000
    570 C          -2.1367   26.3069    1.9401 C.3     6  UNL6        0.0000
    571 C          -0.4715   24.9701    0.6399 C.2     6  UNL6        0.0000
    572 N          -1.4698   25.8709    0.7089 N.2     6  UNL6        0.0000
    573 TI        -14.2028    9.2531   24.3754 Ti      1  UNL1        0.0000
    574 TI         -3.5318   12.5209   14.9547 Ti      1  UNL1        0.0000
    575 TI         -9.9818    5.4641   22.5273 Ti      1  UNL1        0.0000
    576 TI         -8.8228   14.6802   16.7587 Ti      1  UNL1        0.0000
    577 TI         -9.8898   16.3250   14.8622 Ti      1  UNL1        0.0000
    578 TI         -8.0750    5.2733   24.4698 Ti      1  UNL1        0.0000
    579 TI        -13.2044    7.5536   22.4763 Ti      1  UNL1        0.0000
    580 TI         -5.5185   12.7518   16.8136 Ti      1  UNL1        0.0000
    581 H         -13.8381   13.1656   24.1586 H       1  UNL1        0.0000
    582 H          -2.5857    8.6450   15.2654 H       1  UNL1        0.0000
    583 H         -18.1361    8.3596   24.0139 H       1  UNL1        0.0000
    584 H          -0.2204   14.6415   15.1394 H       1  UNL1        0.0000
    585 H          -6.9618    1.2757   24.0728 H       1  UNL1        0.0000
    586 H         -13.9235   15.5938   15.2060 H       1  UNL1        0.0000
    587 H         -13.6617    7.4695   26.0944 H       1  UNL1        0.0000
    588 H          -5.4072   12.2151   13.2649 H       1  UNL1        0.0000
    589 H          -7.5731    4.6310   18.9550 H       1  UNL1        0.0000
    590 H         -10.5889   16.4518   20.3897 H       1  UNL1        0.0000
    591 H         -17.3944   10.7988   22.1477 H       1  UNL1        0.0000
    592 H          -0.6933   10.5310   17.2425 H       1  UNL1        0.0000
    593 H         -15.0630    9.4364   18.7991 H       1  UNL1        0.0000
    594 H         -13.0385   18.0410   17.2352 H       1  UNL1        0.0000
    595 H          -9.6011   19.4386   15.7198 H       1  UNL1        0.0000
    596 H          -2.6665    6.6204   16.4660 H       1  UNL1        0.0000
    597 H          -6.7279   14.4350   15.4080 H       1  UNL1        0.0000
    598 H         -11.1190    7.2722   23.8294 H       1  UNL1        0.0000
    599 H          -3.9193    7.3564   22.8387 H       1  UNL1        0.0000
    600 H          -5.3790    6.8351   23.5936 H       1  UNL1        0.0000
    601 H          -3.5060   11.8086   21.7428 H       1  UNL1        0.0000
    602 H          -4.0969   12.1491   20.1279 H       1  UNL1        0.0000
    603 H          -4.2364    2.3878   22.6444 H       1  UNL1        0.0000
    604 H          -5.5505    3.4426   23.1105 H       1  UNL1        0.0000
    605 C          -2.9123   11.7968   17.8139 C.3     1  UNL1        0.0000
    606 C         -15.1878    9.4843   21.5341 C.3     1  UNL1        0.0000
    607 C          -7.3730    4.5450   21.5868 C.3     1  UNL1        0.0000
    608 C         -10.8209   16.5810   17.7315 C.3     1  UNL1        0.0000
    609 C          -1.9902   11.2228   18.8033 C.ar    1  UNL1        0.0000
    610 C         -16.1463   10.0777   20.5632 C.2     1  UNL1        0.0000
    611 C          -6.4172    3.9649   20.6336 C.ar    1  UNL1        0.0000
    612 C         -11.7271   17.1952   18.7372 C.ar    1  UNL1        0.0000
    613 C          -2.2335   11.2874   20.2112 C.ar    1  UNL1        0.0000
    614 C         -15.9337    9.9670   19.1738 C.3     1  UNL1        0.0000
    615 C          -5.2595    3.2438   21.0793 C.ar    1  UNL1        0.0000
    616 C         -12.8506   17.9301   18.2994 C.ar    1  UNL1        0.0000
    617 C         -11.4593   17.0318   20.0904 C.ar    1  UNL1        0.0000
    618 C          -6.6771    4.0900   19.2512 C.ar    1  UNL1        0.0000
    619 C          -0.8356   10.5643   18.3203 C.ar    1  UNL1        0.0000
    620 C         -17.2671   10.7308   21.0689 C.2     1  UNL1        0.0000
    621 C          -2.6194    8.7259   13.1216 C.ar    1  UNL1        0.0000
    622 C          -9.4955   20.2851   13.1989 C.ar    1  UNL1        0.0000
    623 C          -4.6504    7.3330   26.1001 C.ar    1  UNL1        0.0000
    624 C         -18.0542    8.4094   26.1570 C.2     1  UNL1        0.0000
    625 C          -7.9840   12.3621   18.7159 C.3     1  UNL1        0.0000
    626 C         -12.4795    5.1042   20.6505 C.2     1  UNL1        0.0000
    627 C          -7.1185    2.9360   26.2114 C.3     1  UNL1        0.0000
    628 C          -9.5385   18.8492   13.1600 C.3     1  UNL1        0.0000
    629 C          -5.9257    6.6713   26.1533 C.3     1  UNL1        0.0000
    630 C         -16.6671    8.8723   26.1743 C.2     1  UNL1        0.0000
    631 C          -2.5499    8.0571   14.3501 C.ar    1  UNL1        0.0000
    632 C         -13.8426   13.7529   25.0733 C.ar    1  UNL1        0.0000
    633 C         -15.6950   14.8681   14.2205 C.2     1  UNL1        0.0000
    634 C         -18.6858    8.1596   24.9321 C.3     1  UNL1        0.0000
    635 C          -3.9728    7.6272   24.8637 C.ar    1  UNL1        0.0000
    636 C         -14.4236   15.3926   14.2627 C.2     1  UNL1        0.0000
    637 C          -6.8965    0.7491   25.0209 C.ar    1  UNL1        0.0000
    638 C          -2.4790    6.6580   14.4292 C.ar    1  UNL1        0.0000
    639 N          -2.3962    6.0599   15.6662 N.pl3   1  UNL1        0.0000
    640 N          -4.5520    7.4258   23.6277 N.pl3   1  UNL1        0.0000
    641 N          -3.3333   11.8950   20.7494 N.pl3   1  UNL1        0.0000
    642 N          -4.9158    3.0956   22.3946 N.pl3   1  UNL1        0.0000
    643 O          -4.0999   12.1602   18.1868 O.3     1  UNL1        0.0000
    644 O         -14.3884    8.5613   21.1303 O.3     1  UNL1        0.0000
    645 O          -6.9892    4.6812   22.8060 O.3     1  UNL1        0.0000
    646 O         -10.9085   17.0095   16.5329 O.3     1  UNL1        0.0000
    647 O         -10.0155   15.6507   18.1124 O.3     1  UNL1        0.0000
    648 O          -8.5577    4.8729   21.1883 O.3     1  UNL1        0.0000
    649 O          -2.5102   11.8933   16.6000 O.3     1  UNL1        0.0000
    650 O         -15.2383    9.9174   22.7347 O.3     1  UNL1        0.0000
    651 O          -5.1778   11.5467   15.6155 O.3     1  UNL1        0.0000
    652 O         -12.7024    9.1313   23.2199 O.3     1  UNL1        0.0000
    653 O          -4.3167   13.8648   16.0635 O.3     1  UNL1        0.0000
    654 O         -14.3907    7.3461   23.7199 O.3     1  UNL1        0.0000
    655 O          -9.6749    4.3004   23.7846 O.3     1  UNL1        0.0000
    656 O          -8.3651   16.2595   16.0195 O.3     1  UNL1        0.0000
    657 O          -8.8028    6.5943   23.3183 O.3     1  UNL1        0.0000
    658 O         -10.0120   14.4446   15.5092 O.3     1  UNL1        0.0000
    659 O          -6.7594   12.2253   18.3546 O.3     1  UNL1        0.0000
    660 O         -13.1706    6.1151   21.0338 O.2     1  UNL1        0.0000
    661 O          -7.2681    3.5277   25.0723 O.3     1  UNL1        0.0000
    662 O          -9.5910   18.1440   14.2546 O.3     1  UNL1        0.0000
    663 O          -6.5635    6.3421   25.0666 O.3     1  UNL1        0.0000
    664 O         -11.7620   16.2316   14.2044 O.2     1  UNL1        0.0000
    665 O         -11.3056    4.8497   21.1014 O.2     1  UNL1        0.0000
    666 O          -8.7602   13.2572   18.2279 O.3     1  UNL1        0.0000
    667 O          -2.1353   13.5903   14.1936 O.3     1  UNL1        0.0000
    668 O         -16.0826    9.1266   25.0543 O.2     1  UNL1        0.0000
    669 O          -2.8343   10.8099   14.2236 O.3     1  UNL1        0.0000
    670 O         -13.8774   10.9867   25.1254 O.3     1  UNL1        0.0000
    671 O          -7.0653   13.8732   16.1299 O.3     1  UNL1        0.0000
    672 O         -11.4815    6.7015   23.1272 O.3     1  UNL1        0.0000
    673 O          -4.5865   12.7377   13.1819 O.3     1  UNL1        0.0000
    674 O         -13.5728    8.4399   26.1551 O.3     1  UNL1        0.0000
    675 H         -10.4707   12.3646   19.7588 H       1  UNL1        0.0000
    676 H         -11.3798   10.8080   21.5163 H       1  UNL1        0.0000
    677 H          -9.9230    9.0492   22.4663 H       1  UNL1        0.0000
    678 H          -6.6776   10.3418   19.9372 H       1  UNL1        0.0000
    679 H          -7.5876    8.7903   21.6937 H       1  UNL1        0.0000
    680 C          -9.5324    9.7177   21.7011 C.ar    1  UNL1        0.0000
    681 C          -9.8516   11.5802   20.1890 C.ar    1  UNL1        0.0000
    682 C          -7.7019   10.4356   20.2915 C.ar    1  UNL1        0.0000
    683 C          -8.2093    9.5744   21.2649 C.ar    1  UNL1        0.0000
    684 C         -10.3539   10.7163   21.1632 C.ar    1  UNL1        0.0000
    685 C          -8.5209   11.4450   19.7498 C.ar    1  UNL1        0.0000
    686 H          -5.5936   16.2070   16.9556 H       1  UNL1        0.0000
    687 H          -6.9030   18.1483   17.7606 H       1  UNL1        0.0000
    688 H          -3.3355   15.7476   17.8549 H       1  UNL1        0.0000
    689 H           1.1064    5.3094   19.4887 H       1  UNL1        0.0000
    690 H         -18.3593   17.2804   19.5885 H       1  UNL1        0.0000
    691 C          -3.8932   16.6073   18.2230 C.ar    1  UNL1        0.0000
    692 C           1.6566    4.4430   19.1277 C.ar    1  UNL1        0.0000
    693 C          -5.9105   17.9652   18.1689 C.ar    1  UNL1        0.0000
    694 C         -19.3533   17.4572   19.1837 C.3     1  UNL1        0.0000
    695 C          -5.1731   16.8639   17.7154 C.ar    1  UNL1        0.0000
    696 C         -13.0645    4.1929   19.6385 C.2     1  UNL1        0.0000
    697 H          -6.9116   10.8861   23.5988 H       8  UNL8        0.0000
    698 H          -6.0874   10.9604   25.1807 H       8  UNL8        0.0000
    699 H          -5.7754    9.6027   24.0647 H       8  UNL8        0.0000
    700 H          -9.4821   11.1855   23.7162 H       8  UNL8        0.0000
    701 H         -11.2023   12.5231   25.4635 H       8  UNL8        0.0000
    702 H          -8.1040    8.7544   24.3536 H       8  UNL8        0.0000
    703 H          -7.3143    8.8898   25.9277 H       8  UNL8        0.0000
    704 C         -10.4092   11.8089   25.6488 C.2     8  UNL8        0.0000
    705 C          -7.6693    9.4678   25.0671 C.3     8  UNL8        0.0000
    706 C          -9.5691   11.1480   24.7940 C.2     8  UNL8        0.0000
    707 C          -6.5456   10.2892   24.4437 C.3     8  UNL8        0.0000
    708 N          -8.7630   10.3293   25.5666 N.pl3   8  UNL8        0.0000
    709 H          -5.6980   19.2386   15.8266 H       7  UNL7        0.0000
    710 H          -6.9876   19.9967   14.8478 H       7  UNL7        0.0000
    711 H          -7.1592   18.2963   15.3727 H       7  UNL7        0.0000
    712 H          -4.3268   17.2254   14.5923 H       7  UNL7        0.0000
    713 C          -6.4493   19.0677   15.0504 C.3     7  UNL7        0.0000
    714 C          -4.7840   17.7309   13.7501 C.3     7  UNL7        0.0000
    715 N          -5.7823   18.6317   13.8192 N.pl3   7  UNL7        0.0000
    716 TI        -18.5154    2.0139   37.4857 Ti      1  UNL1        0.0000
    717 TI         -7.8443    5.2817   28.0650 Ti      1  UNL1        0.0000
    718 TI        -14.2944   -1.7751   35.6375 Ti      1  UNL1        0.0000
    719 TI        -13.1353    7.4410   29.8690 Ti      1  UNL1        0.0000
    720 TI        -14.2024    9.0858   27.9725 Ti      1  UNL1        0.0000
    721 TI        -12.3876   -1.9659   37.5800 Ti      1  UNL1        0.0000
    722 TI        -17.5169    0.3144   35.5866 Ti      1  UNL1        0.0000
    723 TI         -9.8311    5.5126   29.9238 Ti      1  UNL1        0.0000
    724 H         -18.1507    5.9264   37.2689 H       7  UNL7        0.0000
    725 H          -6.8983    1.4058   28.3757 H       1  UNL1        0.0000
    726 H         -22.4486    1.1204   37.1242 H       1  UNL1        0.0000
    727 H          -4.5329    7.4023   28.2496 H       1  UNL1        0.0000
    728 H         -11.2743   -5.9635   37.1831 H       3  UNL3        0.0000
    729 H         -18.2360    8.3546   28.3163 H       1  UNL1        0.0000
    730 H         -17.9743    0.2303   39.2047 H       1  UNL1        0.0000
    731 H          -9.7197    4.9759   26.3751 H       1  UNL1        0.0000
    732 H         -11.8856   -2.6082   32.0653 H       1  UNL1        0.0000
    733 H         -14.9014    9.2126   33.5000 H       1  UNL1        0.0000
    734 H         -21.7069    3.5596   35.2580 H       1  UNL1        0.0000
    735 H          -5.0058    3.2918   30.3527 H       1  UNL1        0.0000
    736 H         -19.3755    2.1972   31.9094 H       1  UNL1        0.0000
    737 H         -17.3510   10.8018   30.3455 H       1  UNL1        0.0000
    738 H         -13.9136   12.1994   28.8301 H       1  UNL1        0.0000
    739 H          -6.9790   -0.6188   29.5763 H       1  UNL1        0.0000
    740 H         -11.0404    7.1958   28.5183 H       1  UNL1        0.0000
    741 H         -15.4315    0.0330   36.9397 H       1  UNL1        0.0000
    742 H          -8.2318    0.1172   35.9489 H       1  UNL1        0.0000
    743 H          -9.6915   -0.4041   36.7038 H       1  UNL1        0.0000
    744 H          -7.8185    4.5694   34.8530 H       1  UNL1        0.0000
    745 H          -8.4094    4.9099   33.2382 H       1  UNL1        0.0000
    746 H          -8.5489   -4.8514   35.7547 H       1  UNL1        0.0000
    747 H          -9.8630   -3.7966   36.2207 H       1  UNL1        0.0000
    748 C          -7.2248    4.5576   30.9242 C.3     1  UNL1        0.0000
    749 C         -19.5003    2.2451   34.6444 C.3     1  UNL1        0.0000
    750 C         -11.6855   -2.6942   34.6971 C.3     1  UNL1        0.0000
    751 C         -15.1335    9.3418   30.8418 C.3     1  UNL1        0.0000
    752 C          -6.3027    3.9836   31.9136 C.ar    1  UNL1        0.0000
    753 C         -20.4589    2.8385   33.6734 C.2     1  UNL1        0.0000
    754 C         -10.7298   -3.2743   33.7439 C.ar    1  UNL1        0.0000
    755 C         -16.0397    9.9560   31.8474 C.ar    1  UNL1        0.0000
    756 C          -6.5461    4.0482   33.3215 C.ar    1  UNL1        0.0000
    757 C         -20.2462    2.7278   32.2841 C.3     1  UNL1        0.0000
    758 C          -9.5720   -3.9954   34.1896 C.ar    1  UNL1        0.0000
    759 C         -17.1631   10.6909   31.4097 C.ar    1  UNL1        0.0000
    760 C         -15.7718    9.7926   33.2006 C.ar    1  UNL1        0.0000
    761 C         -10.9897   -3.1492   32.3615 C.ar    1  UNL1        0.0000
    762 C          -5.1481    3.3251   31.4306 C.ar    1  UNL1        0.0000
    763 C         -21.5797    3.4916   34.1792 C.2     1  UNL1        0.0000
    764 C          -6.9320    1.4867   26.2319 C.ar    1  UNL1        0.0000
    765 C         -13.8080   13.0459   26.3092 C.ar    1  UNL1        0.0000
    766 C          -8.9629    0.0938   39.2104 C.2     1  UNL1        0.0000
    767 C         -22.3668    1.1702   39.2673 C.2     1  UNL1        0.0000
    768 C         -12.2965    5.1229   31.8261 C.3     1  UNL1        0.0000
    769 C         -16.7920   -2.1350   33.7608 C.2     1  UNL1        0.0000
    770 C         -11.4310   -4.3032   39.3217 C.3     1  UNL1        0.0000
    771 C         -13.8510   11.6100   26.2702 C.3     1  UNL1        0.0000
    772 C         -10.2382   -0.5679   39.2636 C.2     1  UNL1        0.0000
    773 C         -20.9796    1.6331   39.2845 C.2     1  UNL1        0.0000
    774 C          -6.8625    0.8179   27.4604 C.ar    1  UNL1        0.0000
    775 C         -18.1551    6.5137   38.1835 C.2     7  UNL7        0.0000
    776 C         -20.0075    7.6289   27.3308 C.2     1  UNL1        0.0000
    777 C         -22.9984    0.9204   38.0424 C.3     1  UNL1        0.0000
    778 C          -8.2853    0.3880   37.9739 C.2     1  UNL1        0.0000
    779 C         -18.7362    8.1534   27.3730 C.2     1  UNL1        0.0000
    780 C         -11.2090   -6.4901   38.1312 C.2     3  UNL3        0.0000
    781 C          -6.7916   -0.5812   27.5394 C.ar    1  UNL1        0.0000
    782 N          -6.7088   -1.1793   28.7764 N.pl3   1  UNL1        0.0000
    783 N          -8.8645    0.1866   36.7380 N.pl3   1  UNL1        0.0000
    784 N          -7.6458    4.6557   33.8596 N.pl3   1  UNL1        0.0000
    785 N          -9.2283   -4.1436   35.5049 N.pl3   1  UNL1        0.0000
    786 O          -8.4125    4.9210   31.2971 O.3     1  UNL1        0.0000
    787 O         -18.7009    1.3221   34.2406 O.3     1  UNL1        0.0000
    788 O         -11.3018   -2.5580   35.9163 O.3     1  UNL1        0.0000
    789 O         -15.2210    9.7703   29.6432 O.3     1  UNL1        0.0000
    790 O         -14.3280    8.4115   31.2227 O.3     1  UNL1        0.0000
    791 O         -12.8703   -2.3663   34.2986 O.3     1  UNL1        0.0000
    792 O          -6.8228    4.6541   29.7103 O.3     1  UNL1        0.0000
    793 O         -19.5508    2.6782   35.8450 O.3     1  UNL1        0.0000
    794 O          -9.4903    4.3075   28.7258 O.3     1  UNL1        0.0000
    795 O         -17.0149    1.8921   36.3302 O.3     1  UNL1        0.0000
    796 O          -8.6292    6.6256   29.1737 O.3     1  UNL1        0.0000
    797 O         -18.7032    0.1069   36.8302 O.3     1  UNL1        0.0000
    798 O         -13.9874   -2.9388   36.8949 O.3     1  UNL1        0.0000
    799 O         -12.6776    9.0203   29.1298 O.3     1  UNL1        0.0000
    800 O         -13.1154   -0.6449   36.4286 O.3     1  UNL1        0.0000
    801 O         -14.3245    7.2054   28.6194 O.3     1  UNL1        0.0000
    802 O         -11.0719    4.9861   31.4649 O.3     1  UNL1        0.0000
    803 O         -17.4832   -1.1241   34.1441 O.2     1  UNL1        0.0000
    804 O         -11.5806   -3.7115   38.1826 O.3     1  UNL1        0.0000
    805 O         -13.9035   10.9048   27.3649 O.3     1  UNL1        0.0000
    806 O         -10.8761   -0.8971   38.1769 O.2     1  UNL1        0.0000
    807 O         -16.0745    8.9924   27.3147 O.2     1  UNL1        0.0000
    808 O         -15.6181   -2.3895   34.2117 O.2     1  UNL1        0.0000
    809 O         -13.0727    6.0180   31.3382 O.3     1  UNL1        0.0000
    810 O          -6.4478    6.3511   27.3039 O.3     1  UNL1        0.0000
    811 O         -20.3951    1.8874   38.1645 O.2     1  UNL1        0.0000
    812 O          -7.1468    3.5707   27.3338 O.3     1  UNL1        0.0000
    813 O         -18.1899    3.7475   38.2357 O.3     1  UNL1        0.0000
    814 O         -11.3779    6.6340   29.2402 O.3     1  UNL1        0.0000
    815 O         -15.7940   -0.5377   36.2375 O.3     1  UNL1        0.0000
    816 O          -8.8990    5.4985   26.2921 O.3     1  UNL1        0.0000
    817 O         -17.8853    1.2007   39.2653 O.3     1  UNL1        0.0000
    818 H         -14.7832    5.1254   32.8691 H       1  UNL1        0.0000
    819 H         -15.6923    3.5688   34.6266 H       1  UNL1        0.0000
    820 H         -14.2356    1.8100   35.5766 H       1  UNL1        0.0000
    821 H         -10.9901    3.1026   33.0474 H       1  UNL1        0.0000
    822 H         -11.9001    1.5511   34.8039 H       1  UNL1        0.0000
    823 C         -13.8450    2.4785   34.8114 C.ar    1  UNL1        0.0000
    824 C         -14.1642    4.3410   33.2993 C.ar    1  UNL1        0.0000
    825 C         -12.0144    3.1964   33.4017 C.ar    1  UNL1        0.0000
    826 C         -12.5218    2.3352   34.3751 C.ar    1  UNL1        0.0000
    827 C         -14.6664    3.4771   34.2734 C.ar    1  UNL1        0.0000
    828 C         -12.8334    4.2058   32.8601 C.ar    1  UNL1        0.0000
    829 H          -9.9061    8.9678   30.0659 H       1  UNL1        0.0000
    830 H         -11.2155   10.9091   30.8709 H       1  UNL1        0.0000
    831 H          -7.6480    8.5084   30.9651 H       1  UNL1        0.0000
    832 H          -3.2061   -1.9298   32.5990 H       1  UNL1        0.0000
    833 H         -22.6718   10.0412   32.6988 H       1  UNL1        0.0000
    834 C          -8.2057    9.3680   31.3332 C.ar    1  UNL1        0.0000
    835 C          -2.6559   -2.7962   32.2379 C.ar    1  UNL1        0.0000
    836 C         -10.2230   10.7260   31.2792 C.ar    1  UNL1        0.0000
    837 C         -23.6658   10.2180   32.2939 C.3     1  UNL1        0.0000
    838 C          -9.4857    9.6247   30.8257 C.ar    1  UNL1        0.0000
    839 C         -17.3771   -3.0463   32.7488 C.2     1  UNL1        0.0000
    840 H         -11.2241    3.6469   36.7090 H       9  UNL9        0.0000
    841 H         -10.3999    3.7212   38.2909 H       9  UNL9        0.0000
    842 H         -10.0879    2.3635   37.1749 H       9  UNL9        0.0000
    843 H         -13.7946    3.9463   36.8265 H       9  UNL9        0.0000
    844 H         -15.5149    5.2839   38.5738 H       9  UNL9        0.0000
    845 H         -12.4166    1.5152   37.4639 H       9  UNL9        0.0000
    846 H         -11.6268    1.6506   39.0380 H       9  UNL9        0.0000
    847 C         -14.7218    4.5697   38.7591 C.3     9  UNL9        0.0000
    848 C         -11.9818    2.2286   38.1774 C.3     9  UNL9        0.0000
    849 C         -13.8816    3.9088   37.9043 C.2     9  UNL9        0.0000
    850 C         -10.8581    3.0500   37.5540 C.3     9  UNL9        0.0000
    851 N         -13.0755    3.0901   38.6769 N.2     9  UNL9        0.0000
    852 H         -10.0105   11.9994   28.9369 H       8  UNL8        0.0000
    853 H         -11.3001   12.7574   27.9581 H       8  UNL8        0.0000
    854 H         -11.4717   11.0571   28.4830 H       8  UNL8        0.0000
    855 H          -8.6394    9.9862   27.7026 H       8  UNL8        0.0000
    856 C         -10.7618   11.8285   28.1606 C.3     8  UNL8        0.0000
    857 C          -9.0966   10.4917   26.8604 C.3     8  UNL8        0.0000
    858 N         -10.0948   11.3925   26.9294 N.pl3   8  UNL8        0.0000
    859 TI        -16.9122   30.8691   11.2652 Ti      1  UNL1        0.0000
    860 TI         -6.2412   34.1369    1.8444 Ti      1  UNL1        0.0000
    861 TI        -12.6912   27.0801    9.4170 Ti      1  UNL1        0.0000
    862 TI        -11.5322   36.2962    3.6484 Ti      1  UNL1        0.0000
    863 TI        -12.5993   37.9411    1.7520 Ti      1  UNL1        0.0000
    864 TI        -10.7844   26.8893   11.3595 Ti      1  UNL1        0.0000
    865 TI        -15.9138   29.1696    9.3660 Ti      1  UNL1        0.0000
    866 TI         -8.2279   34.3678    3.7033 Ti      1  UNL1        0.0000
    867 H         -16.5475   34.7816   11.0484 H       1  UNL1        0.0000
    868 H          -5.2951   30.2610    2.1552 H       1  UNL1        0.0000
    869 H         -20.8455   29.9756   10.9036 H       1  UNL1        0.0000
    870 H          -2.9298   36.2575    2.0291 H      21  UNL21       0.0000
    871 H          -9.6712   22.8917   10.9625 H       1  UNL1        0.0000
    872 H         -16.6329   37.2098    2.0957 H       8  UNL8        0.0000
    873 H         -16.3711   29.0855   12.9842 H       1  UNL1        0.0000
    874 H          -8.1166   33.8311    0.1546 H       1  UNL1        0.0000
    875 H         -10.2825   26.2470    5.8447 H       1  UNL1        0.0000
    876 H         -13.2983   38.0678    7.2795 H       1  UNL1        0.0000
    877 H         -20.1038   32.4148    9.0374 H       1  UNL1        0.0000
    878 H          -3.4027   32.1470    4.1322 H       1  UNL1        0.0000
    879 H         -17.7724   31.0524    5.6889 H       1  UNL1        0.0000
    880 H         -15.7479   39.6570    4.1249 H       1  UNL1        0.0000
    881 H         -12.3105   41.0546    2.6096 H      24  UNL24       0.0000
    882 H          -5.3759   28.2364    3.3557 H       1  UNL1        0.0000
    883 H          -9.4373   36.0510    2.2978 H       1  UNL1        0.0000
    884 H         -13.8284   28.8882   10.7192 H       1  UNL1        0.0000
    885 H          -6.6287   28.9724    9.7284 H       1  UNL1        0.0000
    886 H          -8.0884   28.4512   10.4833 H       1  UNL1        0.0000
    887 H          -6.2154   33.4246    8.6325 H       1  UNL1        0.0000
    888 H          -6.8063   33.7651    7.0176 H       1  UNL1        0.0000
    889 H          -6.9458   24.0038    9.5342 H       1  UNL1        0.0000
    890 H          -8.2599   25.0586   10.0002 H       1  UNL1        0.0000
    891 C          -5.6217   33.4128    4.7037 C.3     1  UNL1        0.0000
    892 C         -17.8972   31.1003    8.4239 C.3     1  UNL1        0.0000
    893 C         -10.0824   26.1610    8.4766 C.3     1  UNL1        0.0000
    894 C         -13.5304   38.1970    4.6213 C.3     1  UNL1        0.0000
    895 C          -4.6996   32.8389    5.6930 C.ar    1  UNL1        0.0000
    896 C         -18.8558   31.6937    7.4529 C.2     1  UNL1        0.0000
    897 C          -9.1266   25.5809    7.5233 C.ar    1  UNL1        0.0000
    898 C         -14.4365   38.8112    5.6269 C.2     1  UNL1        0.0000
    899 C          -4.9430   32.9034    7.1009 C.ar    1  UNL1        0.0000
    900 C         -18.6431   31.5830    6.0635 C.3     1  UNL1        0.0000
    901 C          -7.9689   24.8598    7.9691 C.ar    1  UNL1        0.0000
    902 C         -15.5600   39.5461    5.1891 C.3     1  UNL1        0.0000
    903 C         -14.1687   38.6478    6.9801 C.2     1  UNL1        0.0000
    904 C          -9.3865   25.7060    6.1410 C.ar    1  UNL1        0.0000
    905 C          -3.5450   32.1803    5.2100 C.ar    1  UNL1        0.0000
    906 C         -19.9765   32.3468    7.9586 C.2     1  UNL1        0.0000
    907 C          -5.3288   30.3419    0.0113 C.3     1  UNL1        0.0000
    908 C         -12.2049   41.9011    0.0887 C.3     1  UNL1        0.0000
    909 C          -7.3598   28.9490   12.9898 C.ar    1  UNL1        0.0000
    910 C         -20.7636   30.0254   13.0467 C.2     1  UNL1        0.0000
    911 C         -10.6934   33.9781    5.6056 C.3     1  UNL1        0.0000
    912 C         -15.1889   26.7202    7.5402 C.2     1  UNL1        0.0000
    913 C          -9.8279   24.5520   13.1012 C.3     1  UNL1        0.0000
    914 C         -12.2479   40.4652    0.0497 C.3     1  UNL1        0.0000
    915 C          -8.6351   28.2873   13.0430 C.3     1  UNL1        0.0000
    916 C         -19.3765   30.4883   13.0640 C.2     1  UNL1        0.0000
    917 C          -5.2593   29.6731    1.2398 C.2     1  UNL1        0.0000
    918 C         -16.5520   35.3689   11.9630 C.3     1  UNL1        0.0000
    919 C         -18.4044   36.4842    1.1102 C.2     8  UNL8        0.0000
    920 C         -21.3952   29.7756   11.8218 C.3     1  UNL1        0.0000
    921 C          -6.6822   29.2432   11.7534 C.ar    1  UNL1        0.0000
    922 C         -17.1330   37.0086    1.1525 C.2     8  UNL8        0.0000
    923 C          -9.6059   22.3652   11.9106 C.ar    1  UNL1        0.0000
    924 C          -5.1884   28.2740    1.3189 C.2     1  UNL1        0.0000
    925 N          -5.1056   27.6760    2.5559 N.pl3   1  UNL1        0.0000
    926 N          -7.2614   29.0418   10.5174 N.pl3   1  UNL1        0.0000
    927 N          -6.0427   33.5110    7.6391 N.pl3   1  UNL1        0.0000
    928 N          -7.6252   24.7116    9.2844 N.pl3   1  UNL1        0.0000
    929 O          -6.8093   33.7763    5.0765 O.3     1  UNL1        0.0000
    930 O         -17.0978   30.1773    8.0200 O.3     1  UNL1        0.0000
    931 O          -9.6986   26.2972    9.6957 O.3     1  UNL1        0.0000
    932 O         -13.6179   38.6256    3.4226 O.3     1  UNL1        0.0000
    933 O         -12.7249   37.2667    5.0021 O.3     1  UNL1        0.0000
    934 O         -11.2671   26.4890    8.0781 O.3     1  UNL1        0.0000
    935 O          -5.2196   33.5093    3.4898 O.3     1  UNL1        0.0000
    936 O         -17.9477   31.5334    9.6244 O.3     1  UNL1        0.0000
    937 O          -7.8872   33.1627    2.5052 O.3     1  UNL1        0.0000
    938 O         -15.4118   30.7474   10.1096 O.3     1  UNL1        0.0000
    939 O          -7.0261   35.4808    2.9532 O.3     1  UNL1        0.0000
    940 O         -17.1001   28.9621   10.6096 O.3     1  UNL1        0.0000
    941 O         -12.3843   25.9164   10.6743 O.3     1  UNL1        0.0000
    942 O         -11.0745   37.8755    2.9093 O.3     1  UNL1        0.0000
    943 O         -11.5122   28.2103   10.2080 O.3     1  UNL1        0.0000
    944 O         -12.7214   36.0607    2.3989 O.3     1  UNL1        0.0000
    945 O          -9.4688   33.8413    5.2443 O.3     1  UNL1        0.0000
    946 O         -15.8800   27.7311    7.9235 O.2     1  UNL1        0.0000
    947 O          -9.9775   25.1437   11.9620 O.3     1  UNL1        0.0000
    948 O         -12.3004   39.7600    1.1444 O.3     1  UNL1        0.0000
    949 O          -9.2729   27.9581   11.9563 O.3     1  UNL1        0.0000
    950 O         -14.4714   37.8476    1.0941 O.3     1  UNL1        0.0000
    951 O         -14.0150   26.4657    7.9912 O.2     1  UNL1        0.0000
    952 O         -11.4696   34.8732    5.1176 O.3     1  UNL1        0.0000
    953 O          -4.8447   35.2063    1.0833 O.3     1  UNL1        0.0000
    954 O         -18.7920   30.7426   11.9440 O.2     1  UNL1        0.0000
    955 O          -5.5437   32.4259    1.1133 O.3     1  UNL1        0.0000
    956 O         -16.5868   32.6028   12.0151 O.2     1  UNL1        0.0000
    957 O          -9.7747   35.4892    3.0197 O.3     1  UNL1        0.0000
    958 O         -14.1909   28.3175   10.0169 O.3     1  UNL1        0.0000
    959 O          -7.2959   34.3538    0.0716 O.3     1  UNL1        0.0000
    960 O         -16.2822   30.0559   13.0448 O.3     1  UNL1        0.0000
    961 H         -13.1801   33.9807    6.6485 H       1  UNL1        0.0000
    962 H         -14.0892   32.4240    8.4060 H       1  UNL1        0.0000
    963 H         -12.6324   30.6652    9.3560 H       1  UNL1        0.0000
    964 H          -9.3870   31.9578    6.8269 H       1  UNL1        0.0000
    965 H         -10.2970   30.4063    8.5834 H       1  UNL1        0.0000
    966 C         -12.2418   31.3338    8.5908 C.ar    1  UNL1        0.0000
    967 C         -12.5610   33.1962    7.0787 C.ar    1  UNL1        0.0000
    968 C         -10.4113   32.0517    7.1812 C.ar    1  UNL1        0.0000
    969 C         -10.9187   31.1904    8.1546 C.ar    1  UNL1        0.0000
    970 C         -13.0633   32.3323    8.0529 C.ar    1  UNL1        0.0000
    971 C         -11.2303   33.0610    6.6396 C.ar    1  UNL1        0.0000
    972 H          -8.3030   37.8230    3.8453 H      11  UNL11       0.0000
    973 H          -9.6124   39.7643    4.6503 H      11  UNL11       0.0000
    974 H          -6.0449   37.3636    4.7446 H      11  UNL11       0.0000
    975 H          -1.6030   26.9254    6.3785 H       1  UNL1        0.0000
    976 H         -21.0687   38.8964    6.4782 H       9  UNL9        0.0000
    977 C          -6.6026   38.2233    5.1127 C.2    11  UNL11       0.0000
    978 C          -1.0528   26.0590    6.0174 C.ar    1  UNL1        0.0000
    979 C          -8.6199   39.5812    5.0587 C.2    11  UNL11       0.0000
    980 C         -22.0627   39.0732    6.0734 C.3    12  UNL12       0.0000
    981 C          -7.8825   38.4799    4.6051 C.2    11  UNL11       0.0000
    982 C         -15.7739   25.8089    6.5282 C.2     1  UNL1        0.0000
    983 H          -9.6210   32.5021   10.4885 H      13  UNL13       0.0000
    984 H          -8.7968   32.5764   12.0704 H      13  UNL13       0.0000
    985 H          -8.4848   31.2187   10.9544 H      13  UNL13       0.0000
    986 H         -12.1915   32.8015   10.6060 H      13  UNL13       0.0000
    987 H         -13.9117   34.1391   12.3532 H      13  UNL13       0.0000
    988 H         -10.8134   30.3705   11.2434 H      13  UNL13       0.0000
    989 H         -10.0237   30.5058   12.8174 H      13  UNL13       0.0000
    990 C         -13.1187   33.4249   12.5385 C.2    13  UNL13       0.0000
    991 C         -10.3787   31.0838   11.9568 C.3    13  UNL13       0.0000
    992 C         -12.2785   32.7640   11.6838 C.2    13  UNL13       0.0000
    993 C          -9.2550   31.9052   11.3334 C.3    13  UNL13       0.0000
    994 N         -11.4724   31.9453   12.4564 N.pl3  13  UNL13       0.0000
    995 H          -8.4074   40.8546    2.7163 H      10  UNL10       0.0000
    996 H          -9.6970   41.6127    1.7375 H      10  UNL10       0.0000
    997 H          -9.8686   39.9123    2.2624 H      10  UNL10       0.0000
    998 H          -7.0362   38.8414    1.4820 H      10  UNL10       0.0000
    999 C          -9.1587   40.6837    1.9401 C.3    10  UNL10       0.0000
   1000 C          -7.4935   39.3469    0.6399 C.2    10  UNL10       0.0000
   1001 N          -8.4917   40.2477    0.7089 N.2    10  UNL10       0.0000
   1002 TI        -21.2248   23.6299   24.3754 Ti      1  UNL1        0.0000
   1003 TI        -10.5537   26.8977   14.9547 Ti      1  UNL1        0.0000
   1004 TI        -17.0038   19.8409   22.5273 Ti      1  UNL1        0.0000
   1005 TI        -15.8447   29.0570   16.7587 Ti      1  UNL1        0.0000
   1006 TI        -16.9118   30.7018   14.8622 Ti      1  UNL1        0.0000
   1007 TI        -15.0970   19.6501   24.4698 Ti      1  UNL1        0.0000
   1008 TI        -20.2263   21.9304   22.4763 Ti      1  UNL1        0.0000
   1009 TI        -12.5405   27.1286   16.8136 Ti      1  UNL1        0.0000
   1010 H         -20.8601   27.5424   24.1586 H       1  UNL1        0.0000
   1011 H          -9.6077   23.0218   15.2654 H       1  UNL1        0.0000
   1012 H         -25.1580   22.7364   24.0139 H       1  UNL1        0.0000
   1013 H          -7.2423   29.0183   15.1394 H       1  UNL1        0.0000
   1014 H         -13.9837   15.6525   24.0728 H       1  UNL1        0.0000
   1015 H         -20.9455   29.9706   15.2060 H       1  UNL1        0.0000
   1016 H         -20.6837   21.8463   26.0944 H       1  UNL1        0.0000
   1017 H         -12.4291   26.5919   13.2649 H       1  UNL1        0.0000
   1018 H         -14.5950   19.0078   18.9550 H       1  UNL1        0.0000
   1019 H         -17.6108   30.8286   20.3897 H       1  UNL1        0.0000
   1020 H         -24.4163   25.1756   22.1477 H       1  UNL1        0.0000
   1021 H          -7.7152   24.9078   17.2425 H       1  UNL1        0.0000
   1022 H         -22.0849   23.8132   18.7991 H       1  UNL1        0.0000
   1023 H         -20.0604   32.4178   17.2352 H       1  UNL1        0.0000
   1024 H         -16.6230   33.8154   15.7198 H      24  UNL24       0.0000
   1025 H          -9.6884   20.9972   16.4660 H       1  UNL1        0.0000
   1026 H         -13.7498   28.8118   15.4080 H       1  UNL1        0.0000
   1027 H         -18.1409   21.6490   23.8294 H       1  UNL1        0.0000
   1028 H         -10.9412   21.7332   22.8387 H       1  UNL1        0.0000
   1029 H         -12.4009   21.2120   23.5936 H       1  UNL1        0.0000
   1030 H         -10.5279   26.1854   21.7428 H       1  UNL1        0.0000
   1031 H         -11.1188   26.5259   20.1279 H       1  UNL1        0.0000
   1032 H         -11.2583   16.7646   22.6444 H       1  UNL1        0.0000
   1033 H         -12.5724   17.8194   23.1105 H       1  UNL1        0.0000
   1034 C          -9.9342   26.1736   17.8139 C.3     1  UNL1        0.0000
   1035 C         -22.2097   23.8611   21.5341 C.3     1  UNL1        0.0000
   1036 C         -14.3949   18.9218   21.5868 C.3     1  UNL1        0.0000
   1037 C         -17.8429   30.9578   17.7315 C.3     1  UNL1        0.0000
   1038 C          -9.0121   25.5997   18.8033 C.ar    1  UNL1        0.0000
   1039 C         -23.1683   24.4545   20.5632 C.2     1  UNL1        0.0000
   1040 C         -13.4392   18.3417   20.6336 C.ar    1  UNL1        0.0000
   1041 C         -18.7491   31.5720   18.7372 C.2     1  UNL1        0.0000
   1042 C          -9.2555   25.6642   20.2112 C.ar    1  UNL1        0.0000
   1043 C         -22.9556   24.3438   19.1738 C.3     1  UNL1        0.0000
   1044 C         -12.2814   17.6206   21.0793 C.ar    1  UNL1        0.0000
   1045 C         -19.8725   32.3069   18.2994 C.3     1  UNL1        0.0000
   1046 C         -18.4812   31.4086   20.0904 C.2     1  UNL1        0.0000
   1047 C         -13.6991   18.4668   19.2512 C.ar    1  UNL1        0.0000
   1048 C          -7.8575   24.9411   18.3203 C.ar    1  UNL1        0.0000
   1049 C         -24.2891   25.1076   21.0689 C.2     1  UNL1        0.0000
   1050 C          -9.6414   23.1027   13.1216 C.ar    1  UNL1        0.0000
   1051 C         -16.5174   34.6619   13.1989 C.2     1  UNL1        0.0000
   1052 C         -11.6723   21.7098   26.1001 C.ar    1  UNL1        0.0000
   1053 C         -25.0762   22.7862   26.1570 C.2     1  UNL1        0.0000
   1054 C         -15.0060   26.7389   18.7159 C.3     1  UNL1        0.0000
   1055 C         -19.5014   19.4810   20.6505 C.2     1  UNL1        0.0000
   1056 C         -14.1404   17.3128   26.2114 C.3     1  UNL1        0.0000
   1057 C         -16.5604   33.2260   13.1600 C.2     1  UNL1        0.0000
   1058 C         -12.9476   21.0481   26.1533 C.3     1  UNL1        0.0000
   1059 C         -23.6890   23.2491   26.1743 C.2     1  UNL1        0.0000
   1060 C          -9.5719   22.4339   14.3501 C.ar    1  UNL1        0.0000
   1061 C         -20.8645   28.1297   25.0733 C.3     1  UNL1        0.0000
   1062 C         -22.7169   29.2450   14.2205 C.2     1  UNL1        0.0000
   1063 C         -25.7078   22.5364   24.9321 C.3     1  UNL1        0.0000
   1064 C         -10.9947   22.0040   24.8637 C.ar    1  UNL1        0.0000
   1065 C         -21.4456   29.7694   14.2627 C.2     1  UNL1        0.0000
   1066 C         -13.9184   15.1260   25.0209 C.ar    1  UNL1        0.0000
   1067 C          -9.5010   21.0348   14.4292 C.ar    1  UNL1        0.0000
   1068 N          -9.4182   20.4368   15.6662 N.pl3   1  UNL1        0.0000
   1069 N         -11.5739   21.8026   23.6277 N.pl3   1  UNL1        0.0000
   1070 N         -10.3552   26.2718   20.7494 N.pl3   1  UNL1        0.0000
   1071 N         -11.9378   17.4724   22.3946 N.pl3   1  UNL1        0.0000
   1072 O         -11.1219   26.5371   18.1868 O.3     1  UNL1        0.0000
   1073 O         -21.4103   22.9381   21.1303 O.3     1  UNL1        0.0000
   1074 O         -14.0112   19.0580   22.8060 O.3     1  UNL1        0.0000
   1075 O         -17.9304   31.3864   16.5329 O.3     1  UNL1        0.0000
   1076 O         -17.0374   30.0275   18.1124 O.3     1  UNL1        0.0000
   1077 O         -15.5797   19.2497   21.1883 O.3     1  UNL1        0.0000
   1078 O          -9.5322   26.2701   16.6000 O.3     1  UNL1        0.0000
   1079 O         -22.2602   24.2942   22.7347 O.3     1  UNL1        0.0000
   1080 O         -12.1997   25.9235   15.6155 O.3     1  UNL1        0.0000
   1081 O         -19.7243   23.5082   23.2199 O.3     1  UNL1        0.0000
   1082 O         -11.3386   28.2416   16.0635 O.3     1  UNL1        0.0000
   1083 O         -21.4126   21.7229   23.7199 O.3     1  UNL1        0.0000
   1084 O         -16.6968   18.6772   23.7846 O.3     1  UNL1        0.0000
   1085 O         -15.3870   30.6363   16.0195 O.3     1  UNL1        0.0000
   1086 O         -15.8248   20.9711   23.3183 O.3     1  UNL1        0.0000
   1087 O         -17.0339   28.8215   15.5092 O.3     1  UNL1        0.0000
   1088 O         -13.7813   26.6021   18.3546 O.3     1  UNL1        0.0000
   1089 O         -20.1926   20.4919   21.0338 O.2     1  UNL1        0.0000
   1090 O         -14.2900   17.9045   25.0723 O.3     1  UNL1        0.0000
   1091 O         -16.6129   32.5208   14.2546 O.2     1  UNL1        0.0000
   1092 O         -13.5855   20.7189   25.0666 O.3     1  UNL1        0.0000
   1093 O         -18.7839   30.6084   14.2044 O.2     1  UNL1        0.0000
   1094 O         -18.3275   19.2265   21.1014 O.2     1  UNL1        0.0000
   1095 O         -15.7821   27.6340   18.2279 O.3     1  UNL1        0.0000
   1096 O          -9.1572   27.9671   14.1936 O.3     1  UNL1        0.0000
   1097 O         -23.1045   23.5034   25.0543 O.2     1  UNL1        0.0000
   1098 O          -9.8563   25.1867   14.2236 O.3     1  UNL1        0.0000
   1099 O         -20.8993   25.3636   25.1254 O.2     1  UNL1        0.0000
   1100 O         -14.0873   28.2500   16.1299 O.3     1  UNL1        0.0000
   1101 O         -18.5034   21.0783   23.1272 O.3     1  UNL1        0.0000
   1102 O         -11.6084   27.1146   13.1819 O.3     1  UNL1        0.0000
   1103 O         -20.5947   22.8167   26.1551 O.3     1  UNL1        0.0000
   1104 H         -17.4926   26.7415   19.7588 H       1  UNL1        0.0000
   1105 H         -18.4017   25.1848   21.5163 H       1  UNL1        0.0000
   1106 H         -16.9450   23.4260   22.4663 H       1  UNL1        0.0000
   1107 H         -13.6995   24.7186   19.9372 H       1  UNL1        0.0000
   1108 H         -14.6095   23.1671   21.6937 H       1  UNL1        0.0000
   1109 C         -16.5544   24.0946   21.7011 C.ar    1  UNL1        0.0000
   1110 C         -16.8736   25.9570   20.1890 C.ar    1  UNL1        0.0000
   1111 C         -14.7238   24.8125   20.2915 C.ar    1  UNL1        0.0000
   1112 C         -15.2312   23.9512   21.2649 C.ar    1  UNL1        0.0000
   1113 C         -17.3758   25.0931   21.1632 C.ar    1  UNL1        0.0000
   1114 C         -15.5428   25.8218   19.7498 C.ar    1  UNL1        0.0000
   1115 H         -12.6155   30.5838   16.9556 H      15  UNL15       0.0000
   1116 H         -13.9249   32.5251   17.7606 H      15  UNL15       0.0000
   1117 H         -10.3574   30.1244   17.8549 H      15  UNL15       0.0000
   1118 H          -5.9155   19.6862   19.4887 H       1  UNL1        0.0000
   1119 H         -25.3812   31.6572   19.5885 H      11  UNL11       0.0000
   1120 C         -10.9152   30.9841   18.2230 C.2    15  UNL15       0.0000
   1121 C          -5.3653   18.8198   19.1277 C.ar    1  UNL1        0.0000
   1122 C         -12.9324   32.3420   18.1689 C.2    15  UNL15       0.0000
   1123 C         -26.3752   31.8340   19.1837 C.3    16  UNL16       0.0000
   1124 C         -12.1951   31.2407   17.7154 C.2    15  UNL15       0.0000
   1125 C         -20.0865   18.5697   19.6385 C.2     1  UNL1        0.0000
   1126 H         -13.9335   25.2629   23.5988 H      17  UNL17       0.0000
   1127 H         -13.1093   25.3372   25.1807 H      17  UNL17       0.0000
   1128 H         -12.7973   23.9795   24.0647 H      17  UNL17       0.0000
   1129 H         -16.5040   25.5623   23.7162 H      17  UNL17       0.0000
   1130 H         -18.2243   26.8999   25.4635 H      17  UNL17       0.0000
   1131 H         -15.1260   23.1313   24.3536 H      17  UNL17       0.0000
   1132 H         -14.3362   23.2666   25.9277 H      17  UNL17       0.0000
   1133 C         -17.4312   26.1857   25.6488 C.2    17  UNL17       0.0000
   1134 C         -14.6912   23.8446   25.0671 C.3    17  UNL17       0.0000
   1135 C         -16.5910   25.5248   24.7940 C.2    17  UNL17       0.0000
   1136 C         -13.5675   24.6660   24.4437 C.3    17  UNL17       0.0000
   1137 N         -15.7849   24.7061   25.5666 N.pl3  17  UNL17       0.0000
   1138 H         -12.7199   33.6154   15.8266 H      13  UNL13       0.0000
   1139 H         -14.0095   34.3735   14.8478 H      13  UNL13       0.0000
   1140 H         -14.1811   32.6731   15.3727 H      13  UNL13       0.0000
   1141 H         -11.3488   31.6022   14.5923 H      13  UNL13       0.0000
   1142 C         -13.4712   33.4445   15.0504 C.3    13  UNL13       0.0000
   1143 C         -11.8060   32.1077   13.7501 C.3    13  UNL13       0.0000
   1144 N         -12.8042   33.0085   13.8192 N.pl3  13  UNL13       0.0000
   1145 TI        -25.5373   16.3907   37.4857 Ti      1  UNL1        0.0000
   1146 TI        -14.8662   19.6585   28.0650 Ti      1  UNL1        0.0000
   1147 TI        -21.3163   12.6017   35.6375 Ti      1  UNL1        0.0000
   1148 TI        -20.1573   21.8178   29.8690 Ti      1  UNL1        0.0000
   1149 TI        -21.2243   23.4626   27.9725 Ti      1  UNL1        0.0000
   1150 TI        -19.4095   12.4109   37.5800 Ti      1  UNL1        0.0000
   1151 TI        -24.5388   14.6912   35.5866 Ti      1  UNL1        0.0000
   1152 TI        -16.8530   19.8894   29.9238 Ti      1  UNL1        0.0000
   1153 H         -25.1726   20.3032   37.2689 H      12  UNL12       0.0000
   1154 H         -13.9202   15.7826   28.3757 H       1  UNL1        0.0000
   1155 H         -29.4705   15.4972   37.1242 H       1  UNL1        0.0000
   1156 H         -11.5548   21.7791   28.2496 H       1  UNL1        0.0000
   1157 H         -18.2962    8.4133   37.1831 H       7  UNL7        0.0000
   1158 H         -25.2580   22.7314   28.3163 H       1  UNL1        0.0000
   1159 H         -24.9962   14.6071   39.2047 H       1  UNL1        0.0000
   1160 H         -16.7417   19.3527   26.3751 H       1  UNL1        0.0000
   1161 H         -18.9075   11.7686   32.0653 H       1  UNL1        0.0000
   1162 H         -21.9234   23.5894   33.5000 H       1  UNL1        0.0000
   1163 H         -28.7289   17.9364   35.2580 H       1  UNL1        0.0000
   1164 H         -12.0277   17.6686   30.3527 H       1  UNL1        0.0000
   1165 H         -26.3975   16.5740   31.9094 H       1  UNL1        0.0000
   1166 H         -24.3729   25.1786   30.3455 H       1  UNL1        0.0000
   1167 H         -20.9355   26.5762   28.8301 H      24  UNL24       0.0000
   1168 H         -14.0009   13.7580   29.5763 H       1  UNL1        0.0000
   1169 H         -18.0623   21.5726   28.5183 H       1  UNL1        0.0000
   1170 H         -22.4534   14.4098   36.9397 H       1  UNL1        0.0000
   1171 H         -15.2538   14.4940   35.9489 H       1  UNL1        0.0000
   1172 H         -16.7134   13.9728   36.7038 H       1  UNL1        0.0000
   1173 H         -14.8405   18.9462   34.8530 H       1  UNL1        0.0000
   1174 H         -15.4314   19.2867   33.2382 H       1  UNL1        0.0000
   1175 H         -15.5709    9.5254   35.7547 H       1  UNL1        0.0000
   1176 H         -16.8850   10.5802   36.2207 H       1  UNL1        0.0000
   1177 C         -14.2467   18.9344   30.9242 C.3     1  UNL1        0.0000
   1178 C         -26.5223   16.6219   34.6444 C.3     1  UNL1        0.0000
   1179 C         -18.7074   11.6826   34.6971 C.3     1  UNL1        0.0000
   1180 C         -22.1554   23.7186   30.8418 C.3     1  UNL1        0.0000
   1181 C         -13.3247   18.3605   31.9136 C.ar    1  UNL1        0.0000
   1182 C         -27.4808   17.2153   33.6734 C.2     1  UNL1        0.0000
   1183 C         -17.7517   11.1025   33.7439 C.ar    1  UNL1        0.0000
   1184 C         -23.0616   24.3328   31.8474 C.2     1  UNL1        0.0000
   1185 C         -13.5680   18.4250   33.3215 C.ar    1  UNL1        0.0000
   1186 C         -27.2681   17.1046   32.2841 C.3     1  UNL1        0.0000
   1187 C         -16.5940   10.3814   34.1896 C.ar    1  UNL1        0.0000
   1188 C         -24.1850   25.0677   31.4097 C.3     1  UNL1        0.0000
   1189 C         -22.7937   24.1694   33.2006 C.2     1  UNL1        0.0000
   1190 C         -18.0116   11.2276   32.3615 C.ar    1  UNL1        0.0000
   1191 C         -12.1700   17.7019   31.4306 C.ar    1  UNL1        0.0000
   1192 C         -28.6016   17.8684   34.1792 C.2     1  UNL1        0.0000
   1193 C         -13.9539   15.8635   26.2319 C.ar    1  UNL1        0.0000
   1194 C         -20.8299   27.4227   26.3092 C.2     1  UNL1        0.0000
   1195 C         -15.9849   14.4706   39.2104 C.2     1  UNL1        0.0000
   1196 C         -29.3887   15.5470   39.2673 C.2     1  UNL1        0.0000
   1197 C         -19.3185   19.4997   31.8261 C.3     1  UNL1        0.0000
   1198 C         -23.8139   12.2418   33.7608 C.2     1  UNL1        0.0000
   1199 C         -18.4530   10.0736   39.3217 C.3     1  UNL1        0.0000
   1200 C         -20.8729   25.9868   26.2702 C.2     1  UNL1        0.0000
   1201 C         -17.2601   13.8089   39.2636 C.2     1  UNL1        0.0000
   1202 C         -28.0015   16.0099   39.2845 C.2     1  UNL1        0.0000
   1203 C         -13.8844   15.1947   27.4604 C.ar    1  UNL1        0.0000
   1204 C         -25.1771   20.8905   38.1835 C.3    19  UNL19       0.0000
   1205 C         -27.0295   22.0058   27.3308 C.2     1  UNL1        0.0000
   1206 C         -30.0203   15.2972   38.0424 C.3     1  UNL1        0.0000
   1207 C         -15.3072   14.7648   37.9739 C.2     1  UNL1        0.0000
   1208 C         -25.7581   22.5302   27.3730 C.2     1  UNL1        0.0000
   1209 C         -18.2310    7.8867   38.1312 C.2     7  UNL7        0.0000
   1210 C         -13.8135   13.7956   27.5394 C.ar    1  UNL1        0.0000
   1211 N         -13.7307   13.1976   28.7764 N.pl3   1  UNL1        0.0000
   1212 N         -15.8865   14.5634   36.7380 N.pl3   1  UNL1        0.0000
   1213 N         -14.6678   19.0326   33.8596 N.pl3   1  UNL1        0.0000
   1214 N         -16.2503   10.2332   35.5049 N.pl3   1  UNL1        0.0000
   1215 O         -15.4344   19.2979   31.2971 O.3     1  UNL1        0.0000
   1216 O         -25.7229   15.6989   34.2406 O.3     1  UNL1        0.0000
   1217 O         -18.3237   11.8188   35.9163 O.3     1  UNL1        0.0000
   1218 O         -22.2429   24.1472   29.6432 O.3     1  UNL1        0.0000
   1219 O         -21.3500   22.7883   31.2227 O.3     1  UNL1        0.0000
   1220 O         -19.8922   12.0105   34.2986 O.3     1  UNL1        0.0000
   1221 O         -13.8447   19.0309   29.7103 O.3     1  UNL1        0.0000
   1222 O         -26.5727   17.0550   35.8450 O.3     1  UNL1        0.0000
   1223 O         -16.5123   18.6843   28.7258 O.3     1  UNL1        0.0000
   1224 O         -24.0369   16.2690   36.3302 O.3     1  UNL1        0.0000
   1225 O         -15.6512   21.0024   29.1737 O.3     1  UNL1        0.0000
   1226 O         -25.7252   14.4837   36.8302 O.3     1  UNL1        0.0000
   1227 O         -21.0093   11.4380   36.8949 O.3     1  UNL1        0.0000
   1228 O         -19.6995   23.3971   29.1298 O.3     1  UNL1        0.0000
   1229 O         -20.1373   13.7319   36.4286 O.3     1  UNL1        0.0000
   1230 O         -21.3464   21.5822   28.6194 O.3     1  UNL1        0.0000
   1231 O         -18.0938   19.3629   31.4649 O.3     1  UNL1        0.0000
   1232 O         -24.5051   13.2527   34.1441 O.2     1  UNL1        0.0000
   1233 O         -18.6026   10.6653   38.1826 O.3     1  UNL1        0.0000
   1234 O         -20.9254   25.2816   27.3649 O.2     1  UNL1        0.0000
   1235 O         -17.8980   13.4797   38.1769 O.2     1  UNL1        0.0000
   1236 O         -23.0964   23.3692   27.3147 O.2     1  UNL1        0.0000
   1237 O         -22.6400   11.9873   34.2117 O.2     1  UNL1        0.0000
   1238 O         -20.0947   20.3948   31.3382 O.3     1  UNL1        0.0000
   1239 O         -13.4698   20.7279   27.3039 O.3     1  UNL1        0.0000
   1240 O         -27.4171   16.2642   38.1645 O.2     1  UNL1        0.0000
   1241 O         -14.1688   17.9475   27.3338 O.3     1  UNL1        0.0000
   1242 O         -25.2119   18.1244   38.2357 O.3     1  UNL1        0.0000
   1243 O         -18.3998   21.0108   29.2402 O.3     1  UNL1        0.0000
   1244 O         -22.8160   13.8391   36.2375 O.3     1  UNL1        0.0000
   1245 O         -15.9210   19.8754   26.2921 O.3     1  UNL1        0.0000
   1246 O         -24.9072   15.5775   39.2653 O.3     1  UNL1        0.0000
   1247 H         -21.8052   19.5023   32.8691 H       1  UNL1        0.0000
   1248 H         -22.7142   17.9456   34.6266 H       1  UNL1        0.0000
   1249 H         -21.2575   16.1868   35.5766 H       1  UNL1        0.0000
   1250 H         -18.0120   17.4794   33.0474 H       1  UNL1        0.0000
   1251 H         -18.9220   15.9279   34.8039 H       1  UNL1        0.0000
   1252 C         -20.8669   16.8554   34.8114 C.ar    1  UNL1        0.0000
   1253 C         -21.1861   18.7178   33.2993 C.ar    1  UNL1        0.0000
   1254 C         -19.0363   17.5732   33.4017 C.ar    1  UNL1        0.0000
   1255 C         -19.5438   16.7120   34.3751 C.ar    1  UNL1        0.0000
   1256 C         -21.6884   17.8539   34.2734 C.ar    1  UNL1        0.0000
   1257 C         -19.8553   18.5826   32.8601 C.ar    1  UNL1        0.0000
   1258 H         -16.9280   23.3446   30.0659 H      20  UNL20       0.0000
   1259 H         -18.2374   25.2859   30.8709 H      20  UNL20       0.0000
   1260 H         -14.6699   22.8852   30.9651 H      20  UNL20       0.0000
   1261 H         -10.2281   12.4470   32.5990 H       1  UNL1        0.0000
   1262 H         -29.6938   24.4180   32.6988 H      13  UNL13       0.0000
   1263 C         -15.2277   23.7449   31.3332 C.2    20  UNL20       0.0000
   1264 C          -9.6778   11.5806   32.2379 C.ar    1  UNL1        0.0000
   1265 C         -17.2450   25.1028   31.2792 C.2    20  UNL20       0.0000
   1266 C         -30.6878   24.5948   32.2939 C.3    21  UNL21       0.0000
   1267 C         -16.5076   24.0015   30.8257 C.2    20  UNL20       0.0000
   1268 C         -24.3990   11.3305   32.7488 C.2     1  UNL1        0.0000
   1269 H         -18.2461   18.0237   36.7090 H      22  UNL22       0.0000
   1270 H         -17.4219   18.0980   38.2909 H      22  UNL22       0.0000
   1271 H         -17.1099   16.7403   37.1749 H      22  UNL22       0.0000
   1272 H         -20.8166   18.3231   36.8265 H      22  UNL22       0.0000
   1273 H         -22.5368   19.6607   38.5738 H      22  UNL22       0.0000
   1274 H         -19.4385   15.8920   37.4639 H      22  UNL22       0.0000
   1275 H         -18.6487   16.0274   39.0380 H      22  UNL22       0.0000
   1276 C         -21.7437   18.9465   38.7591 C.2    22  UNL22       0.0000
   1277 C         -19.0038   16.6054   38.1774 C.3    22  UNL22       0.0000
   1278 C         -20.9036   18.2856   37.9043 C.2    22  UNL22       0.0000
   1279 C         -17.8800   17.4268   37.5540 C.3    22  UNL22       0.0000
   1280 N         -20.0974   17.4669   38.6769 N.pl3  22  UNL22       0.0000
   1281 H         -17.0324   26.3762   28.9369 H      17  UNL17       0.0000
   1282 H         -18.3220   27.1343   27.9581 H      17  UNL17       0.0000
   1283 H         -18.4937   25.4339   28.4830 H      17  UNL17       0.0000
   1284 H         -15.6613   24.3630   27.7026 H      17  UNL17       0.0000
   1285 C         -17.7837   26.2053   28.1606 C.3    17  UNL17       0.0000
   1286 C         -16.1185   24.8685   26.8604 C.3    17  UNL17       0.0000
   1287 N         -17.1168   25.7693   26.9294 N.pl3  17  UNL17       0.0000
   1288 TI         13.1410    2.1155   11.2652 Ti      1  UNL1        0.0000
   1289 TI         23.8121    5.3833    1.8444 Ti      1  UNL1        0.0000
   1290 TI         17.3620   -1.6735    9.4170 Ti      1  UNL1        0.0000
   1291 TI         18.5210    7.5426    3.6484 Ti      1  UNL1        0.0000
   1292 TI         17.4540    9.1874    1.7520 Ti      1  UNL1        0.0000
   1293 TI         19.2688   -1.8643   11.3595 Ti      1  UNL1        0.0000
   1294 TI         14.1395    0.4160    9.3660 Ti      1  UNL1        0.0000
   1295 TI         21.8253    5.6142    3.7033 Ti      1  UNL1        0.0000
   1296 H          13.5057    6.0280   11.0484 H       1  UNL1        0.0000
   1297 H          24.7581    1.5074    2.1552 H      23  UNL23       0.0000
   1298 H           9.2078    1.2219   10.9036 H       1  UNL1        0.0000
   1299 H          27.1235    7.5039    2.0291 H      24  UNL24       0.0000
   1300 H          20.3821   -5.8619   10.9625 H       1  UNL1        0.0000
   1301 H          13.4203    8.4562    2.0957 H      14  UNL14       0.0000
   1302 H          13.6821    0.3319   12.9842 H       1  UNL1        0.0000
   1303 H          21.9367    5.0775    0.1546 H       1  UNL1        0.0000
   1304 H          19.7708   -2.5066    5.8447 H       1  UNL1        0.0000
   1305 H          16.7550    9.3142    7.2795 H       1  UNL1        0.0000
   1306 H           9.9495    3.6612    9.0374 H       1  UNL1        0.0000
   1307 H          26.6506    3.3934    4.1322 H       1  UNL1        0.0000
   1308 H          12.2809    2.2987    5.6889 H       1  UNL1        0.0000
   1309 H          14.3054   10.9034    4.1249 H       1  UNL1        0.0000
   1310 H          17.7428   12.3010    2.6096 H       1  UNL1        0.0000
   1311 H          24.6774   -0.5172    3.3557 H      23  UNL23       0.0000
   1312 H          20.6160    7.2974    2.2978 H       1  UNL1        0.0000
   1313 H          16.2249    0.1346   10.7192 H       1  UNL1        0.0000
   1314 H          23.4246    0.2188    9.7284 H       1  UNL1        0.0000
   1315 H          21.9649   -0.3025   10.4833 H       1  UNL1        0.0000
   1316 H          23.8379    4.6710    8.6325 H       1  UNL1        0.0000
   1317 H          23.2470    5.0115    7.0176 H       1  UNL1        0.0000
   1318 H          23.1075   -4.7498    9.5342 H       1  UNL1        0.0000
   1319 H          21.7934   -3.6950   10.0002 H       1  UNL1        0.0000
   1320 C          24.4316    4.6592    4.7037 C.3     1  UNL1        0.0000
   1321 C          12.1561    2.3467    8.4239 C.3     1  UNL1        0.0000
   1322 C          19.9709   -2.5926    8.4766 C.3     1  UNL1        0.0000
   1323 C          16.5229    9.4434    4.6213 C.3     1  UNL1        0.0000
   1324 C          25.3537    4.0852    5.6930 C.ar    1  UNL1        0.0000
   1325 C          11.1975    2.9401    7.4529 C.ar    1  UNL1        0.0000
   1326 C          20.9266   -3.1727    7.5233 C.2     1  UNL1        0.0000
   1327 C          15.6167   10.0576    5.6269 C.ar    1  UNL1        0.0000
   1328 C          25.1103    4.1498    7.1009 C.ar    1  UNL1        0.0000
   1329 C          11.4102    2.8294    6.0635 C.ar    1  UNL1        0.0000
   1330 C          22.0844   -3.8938    7.9691 C.2     1  UNL1        0.0000
   1331 C          14.4933   10.7925    5.1891 C.ar    1  UNL1        0.0000
   1332 C          15.8846    9.8942    6.9801 C.ar    1  UNL1        0.0000
   1333 C          20.6667   -3.0476    6.1410 C.3     1  UNL1        0.0000
   1334 C          26.5083    3.4267    5.2100 C.ar    1  UNL1        0.0000
   1335 C          10.0767    3.5932    7.9586 C.ar    1  UNL1        0.0000
   1336 C          24.7244    1.5883    0.0113 C.3    23  UNL23       0.0000
   1337 C          17.8484   13.1474    0.0887 C.2     1  UNL1        0.0000
   1338 C          22.6935    0.1954   12.9898 C.ar    1  UNL1        0.0000
   1339 C           9.2896    1.2718   13.0467 C.ar    1  UNL1        0.0000
   1340 C          19.3598    5.2245    5.6056 C.3     1  UNL1        0.0000
   1341 C          14.8644   -2.0334    7.5402 C.2     1  UNL1        0.0000
   1342 C          20.2253   -4.2016   13.1012 C.2     1  UNL1        0.0000
   1343 C          17.8054   11.7116    0.0497 C.2     1  UNL1        0.0000
   1344 C          21.4182   -0.4663   13.0430 C.3     1  UNL1        0.0000
   1345 C          10.6768    1.7347   13.0640 C.3     1  UNL1        0.0000
   1346 C          24.7939    0.9195    1.2398 C.2    23  UNL23       0.0000
   1347 C          13.5013    6.6153   11.9630 C.ar    1  UNL1        0.0000
   1348 C          11.6488    7.7305    1.1102 C.2    14  UNL14       0.0000
   1349 C           8.6580    1.0220   11.8218 C.ar    1  UNL1        0.0000
   1350 C          23.3711    0.4896   11.7534 C.ar    1  UNL1        0.0000
   1351 C          12.9202    8.2550    1.1525 C.2    14  UNL14       0.0000
   1352 C          20.4474   -6.3885   11.9106 C.3     1  UNL1        0.0000
   1353 C          24.8648   -0.4796    1.3189 C.2    23  UNL23       0.0000
   1354 N          24.9476   -1.0777    2.5559 N.pl3  23  UNL23       0.0000
   1355 N          22.7919    0.2882   10.5174 N.pl3   1  UNL1        0.0000
   1356 N          24.0106    4.7573    7.6391 N.pl3   1  UNL1        0.0000
   1357 N          22.4280   -4.0420    9.2844 N.pl3   1  UNL1        0.0000
   1358 O          23.2439    5.0226    5.0765 O.3     1  UNL1        0.0000
   1359 O          12.9554    1.4237    8.0200 O.3     1  UNL1        0.0000
   1360 O          20.3546   -2.4564    9.6957 O.3     1  UNL1        0.0000
   1361 O          16.4354    9.8719    3.4226 O.3     1  UNL1        0.0000
   1362 O          17.3284    8.5131    5.0021 O.3     1  UNL1        0.0000
   1363 O          18.7861   -2.2647    8.0781 O.3     1  UNL1        0.0000
   1364 O          24.8336    4.7557    3.4898 O.3     1  UNL1        0.0000
   1365 O          12.1056    2.7798    9.6244 O.3     1  UNL1        0.0000
   1366 O          22.1661    4.4091    2.5052 O.3     1  UNL1        0.0000
   1367 O          14.6415    1.9937   10.1096 O.3     1  UNL1        0.0000
   1368 O          23.0272    6.7272    2.9532 O.3     1  UNL1        0.0000
   1369 O          12.9532    0.2085   10.6096 O.3     1  UNL1        0.0000
   1370 O          17.6690   -2.8372   10.6743 O.3     1  UNL1        0.0000
   1371 O          18.9788    9.1219    2.9093 O.3     1  UNL1        0.0000
   1372 O          18.5410   -0.5433   10.2080 O.3     1  UNL1        0.0000
   1373 O          17.3319    7.3070    2.3989 O.3     1  UNL1        0.0000
   1374 O          20.5845    5.0877    5.2443 O.3     1  UNL1        0.0000
   1375 O          14.1732   -1.0225    7.9235 O.2     1  UNL1        0.0000
   1376 O          20.0758   -3.6099   11.9620 O.2     1  UNL1        0.0000
   1377 O          17.7529   11.0064    1.1444 O.2     1  UNL1        0.0000
   1378 O          20.7803   -0.7955   11.9563 O.3     1  UNL1        0.0000
   1379 O          15.5819    9.0940    1.0941 O.3     1  UNL1        0.0000
   1380 O          16.0383   -2.2879    7.9912 O.2     1  UNL1        0.0000
   1381 O          18.5837    6.1196    5.1176 O.3     1  UNL1        0.0000
   1382 O          25.2086    6.4527    1.0833 O.3     1  UNL1        0.0000
   1383 O          11.2612    1.9890   11.9440 O.3     1  UNL1        0.0000
   1384 O          24.5095    3.6723    1.1133 O.3     1  UNL1        0.0000
   1385 O          13.4665    3.8491   12.0151 O.3     1  UNL1        0.0000
   1386 O          20.2785    6.7356    3.0197 O.3     1  UNL1        0.0000
   1387 O          15.8624   -0.4361   10.0169 O.3     1  UNL1        0.0000
   1388 O          22.7573    5.6001    0.0716 O.3     1  UNL1        0.0000
   1389 O          13.7711    1.3023   13.0448 O.3     1  UNL1        0.0000
   1390 H          16.8732    5.2270    6.6485 H       1  UNL1        0.0000
   1391 H          15.9641    3.6704    8.4060 H       1  UNL1        0.0000
   1392 H          17.4208    1.9116    9.3560 H       1  UNL1        0.0000
   1393 H          20.6663    3.2042    6.8269 H       1  UNL1        0.0000
   1394 H          19.7563    1.6527    8.5834 H       1  UNL1        0.0000
   1395 C          17.8114    2.5801    8.5908 C.ar    1  UNL1        0.0000
   1396 C          17.4922    4.4426    7.0787 C.ar    1  UNL1        0.0000
   1397 C          19.6420    3.2980    7.1812 C.ar    1  UNL1        0.0000
   1398 C          19.1346    2.4368    8.1546 C.ar    1  UNL1        0.0000
   1399 C          16.9899    3.5787    8.0529 C.ar    1  UNL1        0.0000
   1400 C          18.8230    4.3074    6.6396 C.ar    1  UNL1        0.0000
   1401 H          21.7503    9.0694    3.8453 H       1  UNL1        0.0000
   1402 H          20.4409   11.0107    4.6503 H       1  UNL1        0.0000
   1403 H          24.0084    8.6100    4.7446 H       1  UNL1        0.0000
   1404 H          28.4503   -1.8282    6.3785 H       1  UNL1        0.0000
   1405 H           8.9846   10.1428    6.4782 H       1  UNL1        0.0000
   1406 C          23.4506    9.4696    5.1127 C.ar    1  UNL1        0.0000
   1407 C          29.0005   -2.6946    6.0174 C.3     1  UNL1        0.0000
   1408 C          21.4334   10.8276    5.0587 C.ar    1  UNL1        0.0000
   1409 C           7.9906   10.3196    6.0734 C.ar    1  UNL1        0.0000
   1410 C          22.1707    9.7262    4.6051 C.ar    1  UNL1        0.0000
   1411 C          14.2793   -2.9447    6.5282 C.2     1  UNL1        0.0000
   1412 H          20.4322    3.7484   10.4885 H      25  UNL25       0.0000
   1413 H          21.2565    3.8228   12.0704 H      25  UNL25       0.0000
   1414 H          21.5685    2.4651   10.9544 H      25  UNL25       0.0000
   1415 H          17.8618    4.0479   10.6060 H      25  UNL25       0.0000
   1416 H          16.1415    5.3855   12.3532 H      25  UNL25       0.0000
   1417 H          19.2398    1.6168   11.2434 H      25  UNL25       0.0000
   1418 H          20.0296    1.7522   12.8174 H      25  UNL25       0.0000
   1419 C          16.9346    4.6713   12.5385 C.2    25  UNL25       0.0000
   1420 C          19.6746    2.3302   11.9568 C.3    25  UNL25       0.0000
   1421 C          17.7747    4.0104   11.6838 C.2    25  UNL25       0.0000
   1422 C          20.7983    3.1516   11.3334 C.3    25  UNL25       0.0000
   1423 N          18.5809    3.1917   12.4564 N.pl3  25  UNL25       0.0000
   1424 H          21.6459   12.1009    2.7163 H      15  UNL15       0.0000
   1425 H          20.3563   12.8590    1.7375 H      15  UNL15       0.0000
   1426 H          20.1847   11.1587    2.2624 H      15  UNL15       0.0000
   1427 H          23.0170   10.0878    1.4820 H      15  UNL15       0.0000
   1428 C          20.8946   11.9301    1.9401 C.3    15  UNL15       0.0000
   1429 C          22.5598   10.5933    0.6399 C.2    15  UNL15       0.0000
   1430 N          21.5615   11.4941    0.7089 N.2    15  UNL15       0.0000
   1431 TI          8.8285   -5.1237   24.3754 Ti      1  UNL1        0.0000
   1432 TI         19.4996   -1.8559   14.9547 Ti      1  UNL1        0.0000
   1433 TI         13.0495   -8.9127   22.5273 Ti      1  UNL1        0.0000
   1434 TI         14.2085    0.3034   16.7587 Ti      1  UNL1        0.0000
   1435 TI         13.1415    1.9482   14.8622 Ti      1  UNL1        0.0000
   1436 TI         14.9563   -9.1035   24.4698 Ti      1  UNL1        0.0000
   1437 TI          9.8270   -6.8232   22.4763 Ti      1  UNL1        0.0000
   1438 TI         17.5128   -1.6250   16.8136 Ti      1  UNL1        0.0000
   1439 H           9.1932   -1.2112   24.1586 H       1  UNL1        0.0000
   1440 H          20.4456   -5.7318   15.2654 H       1  UNL1        0.0000
   1441 H           4.8953   -6.0173   24.0139 H       1  UNL1        0.0000
   1442 H          22.8110    0.2647   15.1394 H       1  UNL1        0.0000
   1443 H          16.0696  -13.1011   24.0728 H       1  UNL1        0.0000
   1444 H           9.1078    1.2170   15.2060 H       1  UNL1        0.0000
   1445 H           9.3696   -6.9073   26.0944 H       1  UNL1        0.0000
   1446 H          17.6241   -2.1617   13.2649 H       1  UNL1        0.0000
   1447 H          15.4583   -9.7458   18.9550 H       1  UNL1        0.0000
   1448 H          12.4424    2.0750   20.3897 H       1  UNL1        0.0000
   1449 H           5.6369   -3.5780   22.1477 H       1  UNL1        0.0000
   1450 H          22.3381   -3.8458   17.2425 H       1  UNL1        0.0000
   1451 H           7.9683   -4.9405   18.7991 H       1  UNL1        0.0000
   1452 H           9.9929    3.6642   17.2352 H       1  UNL1        0.0000
   1453 H          13.4303    5.0618   15.7198 H       1  UNL1        0.0000
   1454 H          20.3649   -7.7564   16.4660 H       1  UNL1        0.0000
   1455 H          16.3035    0.0582   15.4080 H       1  UNL1        0.0000
   1456 H          11.9123   -7.1046   23.8294 H       1  UNL1        0.0000
   1457 H          19.1120   -7.0204   22.8387 H       1  UNL1        0.0000
   1458 H          17.6523   -7.5417   23.5936 H       1  UNL1        0.0000
   1459 H          19.5253   -2.5682   21.7428 H       1  UNL1        0.0000
   1460 H          18.9344   -2.2277   20.1279 H       1  UNL1        0.0000
   1461 H          18.7949  -11.9890   22.6444 H       1  UNL1        0.0000
   1462 H          17.4808  -10.9342   23.1105 H       1  UNL1        0.0000
   1463 C          20.1191   -2.5800   17.8139 C.3     1  UNL1        0.0000
   1464 C           7.8435   -4.8925   21.5341 C.3     1  UNL1        0.0000
   1465 C          15.6584   -9.8318   21.5868 C.3     1  UNL1        0.0000
   1466 C          12.2104    2.2042   17.7315 C.3     1  UNL1        0.0000
   1467 C          21.0411   -3.1540   18.8033 C.ar    1  UNL1        0.0000
   1468 C           6.8850   -4.2991   20.5632 C.ar    1  UNL1        0.0000
   1469 C          16.6141  -10.4119   20.6336 C.2     1  UNL1        0.0000
   1470 C          11.3042    2.8184   18.7372 C.ar    1  UNL1        0.0000
   1471 C          20.7978   -3.0894   20.2112 C.ar    1  UNL1        0.0000
   1472 C           7.0977   -4.4098   19.1738 C.ar    1  UNL1        0.0000
   1473 C          17.7718  -11.1330   21.0793 C.2     1  UNL1        0.0000
   1474 C          10.1807    3.5533   18.2994 C.ar    1  UNL1        0.0000
   1475 C          11.5720    2.6550   20.0904 C.ar    1  UNL1        0.0000
   1476 C          16.3542  -10.2868   19.2512 C.3     1  UNL1        0.0000
   1477 C          22.1958   -3.8125   18.3203 C.ar    1  UNL1        0.0000
   1478 C           5.7642   -3.6460   21.0689 C.ar    1  UNL1        0.0000
   1479 C          20.4119   -5.6509   13.1216 C.2     1  UNL1        0.0000
   1480 C          13.5359    5.9082   13.1989 C.ar    1  UNL1        0.0000
   1481 C          18.3809   -7.0438   26.1001 C.ar    1  UNL1        0.0000
   1482 C           4.9771   -5.9674   26.1570 C.ar    1  UNL1        0.0000
   1483 C          15.0473   -2.0147   18.7159 C.3     1  UNL1        0.0000
   1484 C          10.5519   -9.2726   20.6505 C.2     1  UNL1        0.0000
   1485 C          15.9128  -11.4408   26.2114 C.2     1  UNL1        0.0000
   1486 C          13.4929    4.4724   13.1600 C.3     1  UNL1        0.0000
   1487 C          17.1056   -7.7055   26.1533 C.3     1  UNL1        0.0000
   1488 C           6.3643   -5.5045   26.1743 C.3     1  UNL1        0.0000
   1489 C          20.4814   -6.3197   14.3501 C.2     1  UNL1        0.0000
   1490 C           9.1887   -0.6239   25.0733 C.ar    1  UNL1        0.0000
   1491 C           7.3363    0.4913   14.2205 C.ar    1  UNL1        0.0000
   1492 C           4.3455   -6.2172   24.9321 C.ar    1  UNL1        0.0000
   1493 C          19.0586   -6.7496   24.8637 C.ar    1  UNL1        0.0000
   1494 C           8.6077    1.0158   14.2627 C.ar    1  UNL1        0.0000
   1495 C          16.1348  -13.6277   25.0209 C.3     1  UNL1        0.0000
   1496 C          20.5523   -7.7188   14.4292 C.2     1  UNL1        0.0000
   1497 N          20.6351   -8.3169   15.6662 N.pl3   1  UNL1        0.0000
   1498 N          18.4793   -6.9510   23.6277 N.pl3   1  UNL1        0.0000
   1499 N          19.6980   -2.4819   20.7494 N.pl3   1  UNL1        0.0000
   1500 N          18.1155  -11.2812   22.3946 N.pl3   1  UNL1        0.0000
   1501 O          18.9314   -2.2166   18.1868 O.3     1  UNL1        0.0000
   1502 O           8.6429   -5.8155   21.1303 O.3     1  UNL1        0.0000
   1503 O          16.0421   -9.6956   22.8060 O.3     1  UNL1        0.0000
   1504 O          12.1229    2.6327   16.5329 O.3     1  UNL1        0.0000
   1505 O          13.0158    1.2739   18.1124 O.3     1  UNL1        0.0000
   1506 O          14.4736   -9.5039   21.1883 O.3     1  UNL1        0.0000
   1507 O          20.5211   -2.4835   16.6000 O.3     1  UNL1        0.0000
   1508 O           7.7931   -4.4594   22.7347 O.3     1  UNL1        0.0000
   1509 O          17.8535   -2.8301   15.6155 O.3     1  UNL1        0.0000
   1510 O          10.3289   -5.2455   23.2199 O.3     1  UNL1        0.0000
   1511 O          18.7146   -0.5120   16.0635 O.3     1  UNL1        0.0000
   1512 O           8.6406   -7.0307   23.7199 O.3     1  UNL1        0.0000
   1513 O          13.3565  -10.0764   23.7846 O.3     1  UNL1        0.0000
   1514 O          14.6663    1.8827   16.0195 O.3     1  UNL1        0.0000
   1515 O          14.2285   -7.7825   23.3183 O.3     1  UNL1        0.0000
   1516 O          13.0193    0.0678   15.5092 O.3     1  UNL1        0.0000
   1517 O          16.2719   -2.1515   18.3546 O.3     1  UNL1        0.0000
   1518 O           9.8607   -8.2617   21.0338 O.2     1  UNL1        0.0000
   1519 O          15.7632  -10.8492   25.0723 O.2     1  UNL1        0.0000
   1520 O          13.4404    3.7672   14.2546 O.3     1  UNL1        0.0000
   1521 O          16.4678   -8.0347   25.0666 O.3     1  UNL1        0.0000
   1522 O          11.2694    1.8548   14.2044 O.3     1  UNL1        0.0000
   1523 O          11.7258   -9.5271   21.1014 O.2     1  UNL1        0.0000
   1524 O          14.2711   -1.1196   18.2279 O.3     1  UNL1        0.0000
   1525 O          20.8960   -0.7865   14.1936 O.3     1  UNL1        0.0000
   1526 O           6.9487   -5.2502   25.0543 O.3     1  UNL1        0.0000
   1527 O          20.1970   -3.5669   14.2236 O.2     1  UNL1        0.0000
   1528 O           9.1539   -3.3901   25.1254 O.3     1  UNL1        0.0000
   1529 O          15.9660   -0.5036   16.1299 O.3     1  UNL1        0.0000
   1530 O          11.5498   -7.6753   23.1272 O.3     1  UNL1        0.0000
   1531 O          18.4448   -1.6391   13.1819 O.3     1  UNL1        0.0000
   1532 O           9.4586   -5.9369   26.1551 O.3     1  UNL1        0.0000
   1533 H          12.5606   -2.0122   19.7588 H       1  UNL1        0.0000
   1534 H          11.6516   -3.5688   21.5163 H       1  UNL1        0.0000
   1535 H          13.1083   -5.3276   22.4663 H       1  UNL1        0.0000
   1536 H          16.3538   -4.0350   19.9372 H       1  UNL1        0.0000
   1537 H          15.4438   -5.5865   21.6937 H       1  UNL1        0.0000
   1538 C          13.4989   -4.6591   21.7011 C.ar    1  UNL1        0.0000
   1539 C          13.1797   -2.7966   20.1890 C.ar    1  UNL1        0.0000
   1540 C          15.3294   -3.9412   20.2915 C.ar    1  UNL1        0.0000
   1541 C          14.8220   -4.8024   21.2649 C.ar    1  UNL1        0.0000
   1542 C          12.6774   -3.6605   21.1632 C.ar    1  UNL1        0.0000
   1543 C          14.5105   -2.9318   19.7498 C.ar    1  UNL1        0.0000
   1544 H          17.4378    1.8302   16.9556 H       1  UNL1        0.0000
   1545 H          16.1284    3.7715   17.7606 H       1  UNL1        0.0000
   1546 H          19.6959    1.3708   17.8549 H       1  UNL1        0.0000
   1547 H          24.1377   -9.0674   19.4887 H       1  UNL1        0.0000
   1548 H           4.6720    2.9036   19.5885 H       1  UNL1        0.0000
   1549 C          19.1381    2.2304   18.2230 C.ar    1  UNL1        0.0000
   1550 C          24.6880   -9.9338   19.1277 C.3     1  UNL1        0.0000
   1551 C          17.1208    3.5884   18.1689 C.ar    1  UNL1        0.0000
   1552 C           3.6780    3.0804   19.1837 C.ar    1  UNL1        0.0000
   1553 C          17.8582    2.4870   17.7154 C.ar    1  UNL1        0.0000
   1554 C           9.9668  -10.1839   19.6385 C.2     1  UNL1        0.0000
   1555 H          16.1197   -3.4908   23.5988 H      26  UNL26       0.0000
   1556 H          16.9439   -3.4164   25.1807 H      26  UNL26       0.0000
   1557 H          17.2559   -4.7741   24.0647 H      26  UNL26       0.0000
   1558 H          13.5492   -3.1913   23.7162 H      26  UNL26       0.0000
   1559 H          11.8290   -1.8537   25.4635 H      26  UNL26       0.0000
   1560 H          14.9273   -5.6224   24.3536 H      26  UNL26       0.0000
   1561 H          15.7170   -5.4870   25.9277 H      26  UNL26       0.0000
   1562 C          12.6221   -2.5679   25.6488 C.2    26  UNL26       0.0000
   1563 C          15.3620   -4.9090   25.0671 C.3    26  UNL26       0.0000
   1564 C          13.4622   -3.2288   24.7940 C.2    26  UNL26       0.0000
   1565 C          16.4858   -4.0876   24.4437 C.3    26  UNL26       0.0000
   1566 N          14.2684   -4.0475   25.5666 N.pl3  26  UNL26       0.0000
   1567 H          17.3334    4.8617   15.8266 H      25  UNL25       0.0000
   1568 H          16.0438    5.6198   14.8478 H      25  UNL25       0.0000
   1569 H          15.8721    3.9195   15.3727 H      25  UNL25       0.0000
   1570 H          18.7045    2.8486   14.5923 H      25  UNL25       0.0000
   1571 C          16.5821    4.6909   15.0504 C.3    25  UNL25       0.0000
   1572 C          18.2473    3.3541   13.7501 C.3    25  UNL25       0.0000
   1573 N          17.2490    4.2549   13.8192 N.pl3  25  UNL25       0.0000
   1574 TI          4.5160  -12.3629   37.4857 Ti      1  UNL1        0.0000
   1575 TI         15.1870   -9.0951   28.0650 Ti      1  UNL1        0.0000
   1576 TI          8.7370  -16.1519   35.6375 Ti      1  UNL1        0.0000
   1577 TI          9.8960   -6.9358   29.8690 Ti      1  UNL1        0.0000
   1578 TI          8.8289   -5.2910   27.9725 Ti      1  UNL1        0.0000
   1579 TI         10.6438  -16.3427   37.5800 Ti      1  UNL1        0.0000
   1580 TI          5.5144  -14.0624   35.5866 Ti      1  UNL1        0.0000
   1581 TI         13.2002   -8.8642   29.9238 Ti      1  UNL1        0.0000
   1582 H           4.8807   -8.4504   37.2689 H      16  UNL16       0.0000
   1583 H          16.1331  -12.9710   28.3757 H       1  UNL1        0.0000
   1584 H           0.5827  -13.2565   37.1242 H       1  UNL1        0.0000
   1585 H          18.4984   -6.9745   28.2496 H       1  UNL1        0.0000
   1586 H          11.7570  -20.3403   37.1831 H      17  UNL17       0.0000
   1587 H           4.7953   -6.0222   28.3163 H       1  UNL1        0.0000
   1588 H           5.0571  -14.1465   39.2047 H       1  UNL1        0.0000
   1589 H          13.3116   -9.4009   26.3751 H       1  UNL1        0.0000
   1590 H          11.1457  -16.9850   32.0653 H       1  UNL1        0.0000
   1591 H           8.1299   -5.1642   33.5000 H       1  UNL1        0.0000
   1592 H           1.3244  -10.8172   35.2580 H       1  UNL1        0.0000
   1593 H          18.0255  -11.0850   30.3527 H       1  UNL1        0.0000
   1594 H           3.6558  -12.1797   31.9094 H       1  UNL1        0.0000
   1595 H           5.6803   -3.5750   30.3455 H       1  UNL1        0.0000
   1596 H           9.1177   -2.1774   28.8301 H       1  UNL1        0.0000
   1597 H          16.0523  -14.9956   29.5763 H       1  UNL1        0.0000
   1598 H          11.9909   -7.1810   28.5183 H       1  UNL1        0.0000
   1599 H           7.5998  -14.3438   36.9397 H       1  UNL1        0.0000
   1600 H          14.7995  -14.2596   35.9489 H       1  UNL1        0.0000
   1601 H          13.3398  -14.7809   36.7038 H       1  UNL1        0.0000
   1602 H          15.2128   -9.8074   34.8530 H       1  UNL1        0.0000
   1603 H          14.6219   -9.4669   33.2382 H       1  UNL1        0.0000
   1604 H          14.4824  -19.2282   35.7547 H       1  UNL1        0.0000
   1605 H          13.1683  -18.1734   36.2207 H       1  UNL1        0.0000
   1606 C          15.8065   -9.8192   30.9242 C.3     1  UNL1        0.0000
   1607 C           3.5310  -12.1317   34.6444 C.3     1  UNL1        0.0000
   1608 C          11.3458  -17.0710   34.6971 C.3     1  UNL1        0.0000
   1609 C           7.8978   -5.0350   30.8418 C.3     1  UNL1        0.0000
   1610 C          16.7286  -10.3932   31.9136 C.ar    1  UNL1        0.0000
   1611 C           2.5724  -11.5383   33.6734 C.ar    1  UNL1        0.0000
   1612 C          12.3016  -17.6511   33.7439 C.2     1  UNL1        0.0000
   1613 C           6.9917   -4.4208   31.8474 C.ar    1  UNL1        0.0000
   1614 C          16.4852  -10.3286   33.3215 C.ar    1  UNL1        0.0000
   1615 C           2.7851  -11.6490   32.2841 C.ar    1  UNL1        0.0000
   1616 C          13.4593  -18.3722   34.1896 C.2     1  UNL1        0.0000
   1617 C           5.8682   -3.6859   31.4097 C.ar    1  UNL1        0.0000
   1618 C           7.2595   -4.5842   33.2006 C.ar    1  UNL1        0.0000
   1619 C          12.0417  -17.5261   32.3615 C.3     1  UNL1        0.0000
   1620 C          17.8832  -11.0517   31.4306 C.ar    1  UNL1        0.0000
   1621 C           1.4517  -10.8852   34.1792 C.ar    1  UNL1        0.0000
   1622 C          16.0994  -12.8901   26.2319 C.2     1  UNL1        0.0000
   1623 C           9.2233   -1.3310   26.3092 C.ar    1  UNL1        0.0000
   1624 C          14.0684  -14.2830   39.2104 C.2     1  UNL1        0.0000
   1625 C           0.6646  -13.2066   39.2673 C.2     1  UNL1        0.0000
   1626 C          10.7348   -9.2539   31.8261 C.3     1  UNL1        0.0000
   1627 C           6.2393  -16.5118   33.7608 C.2     1  UNL1        0.0000
   1628 C          11.6003  -18.6800   39.3217 C.3     1  UNL1        0.0000
   1629 C           9.1803   -2.7668   26.2702 C.3     1  UNL1        0.0000
   1630 C          12.7931  -14.9447   39.2636 C.2     1  UNL1        0.0000
   1631 C           2.0517  -12.7437   39.2845 C.2     1  UNL1        0.0000
   1632 C          16.1689  -13.5589   27.4604 C.2     1  UNL1        0.0000
   1633 C           4.8762   -7.8631   38.1835 C.2    16  UNL16       0.0000
   1634 C           3.0238   -6.7479   27.3308 C.ar    1  UNL1        0.0000
   1635 C           0.0330  -13.4564   38.0424 C.2     1  UNL1        0.0000
   1636 C          14.7460  -13.9888   37.9739 C.2     1  UNL1        0.0000
   1637 C           4.2951   -6.2234   27.3730 C.ar    1  UNL1        0.0000
   1638 C          11.8223  -20.8669   38.1312 C.3    27  UNL27       0.0000
   1639 C          16.2398  -14.9580   27.5394 C.2     1  UNL1        0.0000
   1640 N          16.3226  -15.5561   28.7764 N.pl3   1  UNL1        0.0000
   1641 N          14.1668  -14.1902   36.7380 N.pl3   1  UNL1        0.0000
   1642 N          15.3855   -9.7211   33.8596 N.pl3   1  UNL1        0.0000
   1643 N          13.8030  -18.5204   35.5049 N.pl3   1  UNL1        0.0000
   1644 O          14.6189   -9.4558   31.2971 O.3     1  UNL1        0.0000
   1645 O           4.3304  -13.0547   34.2406 O.3     1  UNL1        0.0000
   1646 O          11.7296  -16.9348   35.9163 O.3     1  UNL1        0.0000
   1647 O           7.8103   -4.6065   29.6432 O.3     1  UNL1        0.0000
   1648 O           8.7033   -5.9653   31.2227 O.3     1  UNL1        0.0000
   1649 O          10.1611  -16.7431   34.2986 O.3     1  UNL1        0.0000
   1650 O          16.2086   -9.7227   29.7103 O.3     1  UNL1        0.0000
   1651 O           3.4805  -11.6986   35.8450 O.3     1  UNL1        0.0000
   1652 O          13.5410  -10.0693   28.7258 O.3     1  UNL1        0.0000
   1653 O           6.0164  -12.4847   36.3302 O.3     1  UNL1        0.0000
   1654 O          14.4021   -7.7512   29.1737 O.3     1  UNL1        0.0000
   1655 O           4.3281  -14.2699   36.8302 O.3     1  UNL1        0.0000
   1656 O           9.0439  -17.3156   36.8949 O.3     1  UNL1        0.0000
   1657 O          10.3537   -5.3565   29.1298 O.3     1  UNL1        0.0000
   1658 O           9.9160  -15.0217   36.4286 O.3     1  UNL1        0.0000
   1659 O           8.7068   -7.1714   28.6194 O.3     1  UNL1        0.0000
   1660 O          11.9594   -9.3907   31.4649 O.3     1  UNL1        0.0000
   1661 O           5.5482  -15.5009   34.1441 O.2     1  UNL1        0.0000
   1662 O          11.4507  -18.0884   38.1826 O.3     1  UNL1        0.0000
   1663 O           9.1278   -3.4720   27.3649 O.3     1  UNL1        0.0000
   1664 O          12.1553  -15.2739   38.1769 O.2     1  UNL1        0.0000
   1665 O           6.9568   -5.3844   27.3147 O.3     1  UNL1        0.0000
   1666 O           7.4132  -16.7663   34.2117 O.2     1  UNL1        0.0000
   1667 O           9.9586   -8.3588   31.3382 O.3     1  UNL1        0.0000
   1668 O          16.5835   -8.0257   27.3039 O.3     1  UNL1        0.0000
   1669 O           2.6362  -12.4894   38.1645 O.2     1  UNL1        0.0000
   1670 O          15.8845  -10.8061   27.3338 O.2     1  UNL1        0.0000
   1671 O           4.8414  -10.6293   38.2357 O.3     1  UNL1        0.0000
   1672 O          11.6535   -7.7428   29.2402 O.3     1  UNL1        0.0000
   1673 O           7.2373  -14.9145   36.2375 O.3     1  UNL1        0.0000
   1674 O          14.1323   -8.8783   26.2921 O.3     1  UNL1        0.0000
   1675 O           5.1460  -13.1761   39.2653 O.3     1  UNL1        0.0000
   1676 H           8.2481   -9.2514   32.8691 H       1  UNL1        0.0000
   1677 H           7.3390  -10.8080   34.6266 H       1  UNL1        0.0000
   1678 H           8.7958  -12.5668   35.5766 H       1  UNL1        0.0000
   1679 H          12.0412  -11.2742   33.0474 H       1  UNL1        0.0000
   1680 H          11.1312  -12.8257   34.8039 H       1  UNL1        0.0000
   1681 C           9.1864  -11.8983   34.8114 C.ar    1  UNL1        0.0000
   1682 C           8.8671  -10.0358   33.2993 C.ar    1  UNL1        0.0000
   1683 C          11.0169  -11.1804   33.4017 C.ar    1  UNL1        0.0000
   1684 C          10.5095  -12.0416   34.3751 C.ar    1  UNL1        0.0000
   1685 C           8.3649  -10.8997   34.2734 C.ar    1  UNL1        0.0000
   1686 C          10.1979  -10.1710   32.8601 C.ar    1  UNL1        0.0000
   1687 H          13.1252   -5.4090   30.0659 H       1  UNL1        0.0000
   1688 H          11.8158   -3.4677   30.8709 H       1  UNL1        0.0000
   1689 H          15.3833   -5.8684   30.9651 H       1  UNL1        0.0000
   1690 H          19.8252  -16.3066   32.5990 H       1  UNL1        0.0000
   1691 H           0.3595   -4.3356   32.6988 H       1  UNL1        0.0000
   1692 C          14.8256   -5.0088   31.3332 C.ar    1  UNL1        0.0000
   1693 C          20.3754  -17.1730   32.2379 C.3     1  UNL1        0.0000
   1694 C          12.8083   -3.6508   31.2792 C.ar    1  UNL1        0.0000
   1695 C          -0.6345   -4.1588   32.2939 C.ar    1  UNL1        0.0000
   1696 C          13.5457   -4.7522   30.8257 C.ar    1  UNL1        0.0000
   1697 C           5.6543  -17.4231   32.7488 C.2     1  UNL1        0.0000
   1698 H          11.8072  -10.7300   36.7090 H      28  UNL28       0.0000
   1699 H          12.6314  -10.6556   38.2909 H      28  UNL28       0.0000
   1700 H          12.9434  -12.0133   37.1749 H      28  UNL28       0.0000
   1701 H           9.2367  -10.4305   36.8265 H      28  UNL28       0.0000
   1702 H           7.5165   -9.0929   38.5738 H      28  UNL28       0.0000
   1703 H          10.6148  -12.8616   37.4639 H      28  UNL28       0.0000
   1704 H          11.4045  -12.7262   39.0380 H      28  UNL28       0.0000
   1705 C           8.3095   -9.8071   38.7591 C.3    28  UNL28       0.0000
   1706 C          11.0495  -12.1483   38.1774 C.3    28  UNL28       0.0000
   1707 C           9.1497  -10.4680   37.9043 C.2    28  UNL28       0.0000
   1708 C          12.1732  -11.3268   37.5540 C.3    28  UNL28       0.0000
   1709 N           9.9558  -11.2867   38.6769 N.2    28  UNL28       0.0000
   1710 H          13.0208   -2.3775   28.9369 H      26  UNL26       0.0000
   1711 H          11.7312   -1.6194   27.9581 H      26  UNL26       0.0000
   1712 H          11.5596   -3.3198   28.4830 H      26  UNL26       0.0000
   1713 H          14.3920   -4.3906   27.7026 H      26  UNL26       0.0000
   1714 C          12.2695   -2.5483   28.1606 C.3    26  UNL26       0.0000
   1715 C          13.9347   -3.8852   26.8604 C.3    26  UNL26       0.0000
   1716 N          12.9365   -2.9843   26.9294 N.pl3  26  UNL26       0.0000
   1717 TI          6.1191   16.4923   11.2652 Ti      1  UNL1        0.0000
   1718 TI         16.7902   19.7601    1.8444 Ti      1  UNL1        0.0000
   1719 TI         10.3401   12.7033    9.4170 Ti      1  UNL1        0.0000
   1720 TI         11.4991   21.9194    3.6484 Ti      1  UNL1        0.0000
   1721 TI         10.4321   23.5642    1.7520 Ti      1  UNL1        0.0000
   1722 TI         12.2469   12.5125   11.3595 Ti      1  UNL1        0.0000
   1723 TI          7.1175   14.7928    9.3660 Ti      1  UNL1        0.0000
   1724 TI         14.8034   19.9910    3.7033 Ti      1  UNL1        0.0000
   1725 H           6.4838   20.4048   11.0484 H       1  UNL1        0.0000
   1726 H          17.7362   15.8842    2.1552 H       1  UNL1        0.0000
   1727 H           2.1859   15.5988   10.9036 H       1  UNL1        0.0000
   1728 H          20.1016   21.8807    2.0291 H      24  UNL24       0.0000
   1729 H          13.3602    8.5149   10.9625 H       1  UNL1        0.0000
   1730 H           6.3984   22.8330    2.0957 H      18  UNL18       0.0000
   1731 H           6.6602   14.7087   12.9842 H       1  UNL1        0.0000
   1732 H          14.9147   19.4543    0.1546 H       1  UNL1        0.0000
   1733 H          12.7489   11.8702    5.8447 H       1  UNL1        0.0000
   1734 H           9.7330   23.6910    7.2795 H       1  UNL1        0.0000
   1735 H           2.9275   18.0380    9.0374 H       1  UNL1        0.0000
   1736 H          19.6286   17.7702    4.1322 H       1  UNL1        0.0000
   1737 H           5.2589   16.6756    5.6889 H       1  UNL1        0.0000
   1738 H           7.2835   25.2802    4.1249 H       1  UNL1        0.0000
   1739 H          10.7209   26.6778    2.6096 H       1  UNL1        0.0000
   1740 H          17.6555   13.8596    3.3557 H       1  UNL1        0.0000
   1741 H          13.5941   21.6742    2.2978 H       1  UNL1        0.0000
   1742 H           9.2029   14.5114   10.7192 H       1  UNL1        0.0000
   1743 H          16.4026   14.5956    9.7284 H       1  UNL1        0.0000
   1744 H          14.9429   14.0743   10.4833 H       1  UNL1        0.0000
   1745 H          16.8159   19.0478    8.6325 H       1  UNL1        0.0000
   1746 H          16.2250   19.3883    7.0176 H       1  UNL1        0.0000
   1747 H          16.0855    9.6270    9.5342 H       1  UNL1        0.0000
   1748 H          14.7714   10.6818   10.0002 H       1  UNL1        0.0000
   1749 C          17.4097   19.0360    4.7037 C.3     1  UNL1        0.0000
   1750 C           5.1341   16.7235    8.4239 C.3     1  UNL1        0.0000
   1751 C          12.9490   11.7842    8.4766 C.3     1  UNL1        0.0000
   1752 C           9.5010   23.8202    4.6213 C.3     1  UNL1        0.0000
   1753 C          18.3317   18.4620    5.6930 C.ar    1  UNL1        0.0000
   1754 C           4.1756   17.3169    7.4529 C.ar    1  UNL1        0.0000
   1755 C          13.9047   11.2041    7.5233 C.ar    1  UNL1        0.0000
   1756 C           8.5948   24.4344    5.6269 C.ar    1  UNL1        0.0000
   1757 C          18.0884   18.5266    7.1009 C.ar    1  UNL1        0.0000
   1758 C           4.3882   17.2062    6.0635 C.ar    1  UNL1        0.0000
   1759 C          15.0624   10.4830    7.9691 C.ar    1  UNL1        0.0000
   1760 C           7.4713   25.1693    5.1891 C.ar    1  UNL1        0.0000
   1761 C           8.8626   24.2710    6.9801 C.ar    1  UNL1        0.0000
   1762 C          13.6448   11.3292    6.1410 C.ar    1  UNL1        0.0000
   1763 C          19.4864   17.8035    5.2100 C.ar    1  UNL1        0.0000
   1764 C           3.0548   17.9700    7.9586 C.ar    1  UNL1        0.0000
   1765 C          17.7025   15.9651    0.0113 C.3     1  UNL1        0.0000
   1766 C          10.8265   27.5243    0.0887 C.2     1  UNL1        0.0000
   1767 C          15.6715   14.5722   12.9898 C.ar    1  UNL1        0.0000
   1768 C           2.2677   15.6486   13.0467 C.ar    1  UNL1        0.0000
   1769 C          12.3379   19.6013    5.6056 C.3     1  UNL1        0.0000
   1770 C           7.8425   12.3434    7.5402 C.3     1  UNL1        0.0000
   1771 C          13.2034   10.1752   13.1012 C.3     1  UNL1        0.0000
   1772 C          10.7835   26.0884    0.0497 C.2     1  UNL1        0.0000
   1773 C          14.3962   13.9105   13.0430 C.3     1  UNL1        0.0000
   1774 C           3.6549   16.1115   13.0640 C.3     1  UNL1        0.0000
   1775 C          17.7720   15.2963    1.2398 C.2     1  UNL1        0.0000
   1776 C           6.4793   20.9921   11.9630 C.ar    1  UNL1        0.0000
   1777 C           4.6269   22.1073    1.1102 C.2    18  UNL18       0.0000
   1778 C           1.6361   15.3988   11.8218 C.ar    1  UNL1        0.0000
   1779 C          16.3492   14.8664   11.7534 C.ar    1  UNL1        0.0000
   1780 C           5.8983   22.6318    1.1525 C.2    18  UNL18       0.0000
   1781 C          13.4254    7.9883   11.9106 C.ar    1  UNL1        0.0000
   1782 C          17.8429   13.8972    1.3189 C.2     1  UNL1        0.0000
   1783 N          17.9257   13.2992    2.5559 N.pl3   1  UNL1        0.0000
   1784 N          15.7699   14.6650   10.5174 N.pl3   1  UNL1        0.0000
   1785 N          16.9886   19.1342    7.6391 N.pl3   1  UNL1        0.0000
   1786 N          15.4061   10.3348    9.2844 N.pl3   1  UNL1        0.0000
   1787 O          16.2220   19.3994    5.0765 O.3     1  UNL1        0.0000
   1788 O           5.9335   15.8005    8.0200 O.3     1  UNL1        0.0000
   1789 O          13.3327   11.9204    9.6957 O.3     1  UNL1        0.0000
   1790 O           9.4135   24.2487    3.4226 O.3     1  UNL1        0.0000
   1791 O          10.3064   22.8899    5.0021 O.3     1  UNL1        0.0000
   1792 O          11.7642   12.1121    8.0781 O.3     1  UNL1        0.0000
   1793 O          17.8117   19.1325    3.4898 O.3     1  UNL1        0.0000
   1794 O           5.0837   17.1566    9.6244 O.3     1  UNL1        0.0000
   1795 O          15.1441   18.7859    2.5052 O.3     1  UNL1        0.0000
   1796 O           7.6195   16.3706   10.1096 O.3     1  UNL1        0.0000
   1797 O          16.0052   21.1040    2.9532 O.3     1  UNL1        0.0000
   1798 O           5.9312   14.5853   10.6096 O.3     1  UNL1        0.0000
   1799 O          10.6471   11.5396   10.6743 O.3     1  UNL1        0.0000
   1800 O          11.9569   23.4987    2.9093 O.3     1  UNL1        0.0000
   1801 O          11.5191   13.8335   10.2080 O.3     1  UNL1        0.0000
   1802 O          10.3099   21.6838    2.3989 O.3     1  UNL1        0.0000
   1803 O          13.5625   19.4645    5.2443 O.3     1  UNL1        0.0000
   1804 O           7.1513   13.3543    7.9235 O.3     1  UNL1        0.0000
   1805 O          13.0538   10.7669   11.9620 O.3     1  UNL1        0.0000
   1806 O          10.7310   25.3832    1.1444 O.2     1  UNL1        0.0000
   1807 O          13.7584   13.5813   11.9563 O.3     1  UNL1        0.0000
   1808 O           8.5600   23.4708    1.0941 O.3     1  UNL1        0.0000
   1809 O           9.0164   12.0889    7.9912 O.3     1  UNL1        0.0000
   1810 O          11.5617   20.4964    5.1176 O.3     1  UNL1        0.0000
   1811 O          18.1866   20.8295    1.0833 O.3     1  UNL1        0.0000
   1812 O           4.2393   16.3658   11.9440 O.3     1  UNL1        0.0000
   1813 O          17.4876   18.0491    1.1133 O.3     1  UNL1        0.0000
   1814 O           6.4445   18.2259   12.0151 O.3     1  UNL1        0.0000
   1815 O          13.2566   21.1124    3.0197 O.3     1  UNL1        0.0000
   1816 O           8.8404   13.9407   10.0169 O.3     1  UNL1        0.0000
   1817 O          15.7354   19.9769    0.0716 O.3     1  UNL1        0.0000
   1818 O           6.7492   15.6791   13.0448 O.3     1  UNL1        0.0000
   1819 H           9.8512   19.6038    6.6485 H       1  UNL1        0.0000
   1820 H           8.9422   18.0472    8.4060 H       1  UNL1        0.0000
   1821 H          10.3989   16.2884    9.3560 H       1  UNL1        0.0000
   1822 H          13.6444   17.5810    6.8269 H       1  UNL1        0.0000
   1823 H          12.7344   16.0295    8.5834 H       1  UNL1        0.0000
   1824 C          10.7895   16.9569    8.5908 C.ar    1  UNL1        0.0000
   1825 C          10.4703   18.8194    7.0787 C.ar    1  UNL1        0.0000
   1826 C          12.6200   17.6748    7.1812 C.ar    1  UNL1        0.0000
   1827 C          12.1126   16.8136    8.1546 C.ar    1  UNL1        0.0000
   1828 C           9.9680   17.9555    8.0529 C.ar    1  UNL1        0.0000
   1829 C          11.8011   18.6842    6.6396 C.ar    1  UNL1        0.0000
   1830 H          14.7284   23.4462    3.8453 H       1  UNL1        0.0000
   1831 H          13.4190   25.3875    4.6503 H       1  UNL1        0.0000
   1832 H          16.9865   22.9868    4.7446 H       1  UNL1        0.0000
   1833 H          21.4283   12.5486    6.3785 H       1  UNL1        0.0000
   1834 H           1.9626   24.5196    6.4782 H       1  UNL1        0.0000
   1835 C          16.4287   23.8465    5.1127 C.ar    1  UNL1        0.0000
   1836 C          21.9786   11.6822    6.0174 C.ar    1  UNL1        0.0000
   1837 C          14.4114   25.2044    5.0587 C.ar    1  UNL1        0.0000
   1838 C           0.9686   24.6964    6.0734 C.ar    1  UNL1        0.0000
   1839 C          15.1488   24.1031    4.6051 C.ar    1  UNL1        0.0000
   1840 C           7.2574   11.4321    6.5282 C.ar    1  UNL1        0.0000
   1841 H          13.4103   18.1253   10.4885 H      29  UNL29       0.0000
   1842 H          14.2345   18.1996   12.0704 H      29  UNL29       0.0000
   1843 H          14.5465   16.8419   10.9544 H      29  UNL29       0.0000
   1844 H          10.8398   18.4247   10.6060 H      29  UNL29       0.0000
   1845 H           9.1196   19.7623   12.3532 H      29  UNL29       0.0000
   1846 H          12.2179   15.9936   11.2434 H      29  UNL29       0.0000
   1847 H          13.0076   16.1290   12.8174 H      29  UNL29       0.0000
   1848 C           9.9127   19.0481   12.5385 C.2    29  UNL29       0.0000
   1849 C          12.6526   16.7070   11.9568 C.3    29  UNL29       0.0000
   1850 C          10.7528   18.3872   11.6838 C.2    29  UNL29       0.0000
   1851 C          13.7764   17.5284   11.3334 C.3    29  UNL29       0.0000
   1852 N          11.5590   17.5685   12.4564 N.pl3  29  UNL29       0.0000
   1853 H          14.6240   26.4778    2.7163 H      19  UNL19       0.0000
   1854 H          13.3344   27.2359    1.7375 H      19  UNL19       0.0000
   1855 H          13.1627   25.5355    2.2624 H      19  UNL19       0.0000
   1856 H          15.9951   24.4646    1.4820 H      19  UNL19       0.0000
   1857 C          13.8727   26.3069    1.9401 C.3    19  UNL19       0.0000
   1858 C          15.5379   24.9701    0.6399 C.2    19  UNL19       0.0000
   1859 N          14.5396   25.8709    0.7089 N.2    19  UNL19       0.0000
   1860 TI          1.8066    9.2531   24.3754 Ti      1  UNL1        0.0000
   1861 TI         12.4776   12.5209   14.9547 Ti      1  UNL1        0.0000
   1862 TI          6.0275    5.4641   22.5273 Ti      1  UNL1        0.0000
   1863 TI          7.1866   14.6802   16.7587 Ti      1  UNL1        0.0000
   1864 TI          6.1195   16.3250   14.8622 Ti      1  UNL1        0.0000
   1865 TI          7.9344    5.2733   24.4698 Ti      1  UNL1        0.0000
   1866 TI          2.8050    7.5536   22.4763 Ti      1  UNL1        0.0000
   1867 TI         10.4908   12.7518   16.8136 Ti      1  UNL1        0.0000
   1868 H           2.1712   13.1656   24.1586 H       1  UNL1        0.0000
   1869 H          13.4237    8.6450   15.2654 H       1  UNL1        0.0000
   1870 H          -2.1267    8.3596   24.0139 H       1  UNL1        0.0000
   1871 H          15.7890   14.6415   15.1394 H       1  UNL1        0.0000
   1872 H           9.0476    1.2757   24.0728 H       1  UNL1        0.0000
   1873 H           2.0859   15.5938   15.2060 H       1  UNL1        0.0000
   1874 H           2.3477    7.4695   26.0944 H       1  UNL1        0.0000
   1875 H          10.6022   12.2151   13.2649 H       1  UNL1        0.0000
   1876 H           8.4363    4.6310   18.9550 H       1  UNL1        0.0000
   1877 H           5.4205   16.4518   20.3897 H       1  UNL1        0.0000
   1878 H          -1.3850   10.7988   22.1477 H       1  UNL1        0.0000
   1879 H          15.3161   10.5310   17.2425 H       1  UNL1        0.0000
   1880 H           0.9464    9.4364   18.7991 H       1  UNL1        0.0000
   1881 H           2.9709   18.0410   17.2352 H       1  UNL1        0.0000
   1882 H           6.4083   19.4386   15.7198 H       1  UNL1        0.0000
   1883 H          13.3429    6.6204   16.4660 H       1  UNL1        0.0000
   1884 H           9.2815   14.4350   15.4080 H       1  UNL1        0.0000
   1885 H           4.8904    7.2722   23.8294 H       1  UNL1        0.0000
   1886 H          12.0901    7.3564   22.8387 H       1  UNL1        0.0000
   1887 H          10.6304    6.8351   23.5936 H       1  UNL1        0.0000
   1888 H          12.5034   11.8086   21.7428 H       1  UNL1        0.0000
   1889 H          11.9125   12.1491   20.1279 H       1  UNL1        0.0000
   1890 H          11.7730    2.3878   22.6444 H       1  UNL1        0.0000
   1891 H          10.4589    3.4426   23.1105 H       1  UNL1        0.0000
   1892 C          13.0971   11.7968   17.8139 C.3     1  UNL1        0.0000
   1893 C           0.8216    9.4843   21.5341 C.3     1  UNL1        0.0000
   1894 C           8.6364    4.5450   21.5868 C.3     1  UNL1        0.0000
   1895 C           5.1884   16.5810   17.7315 C.3     1  UNL1        0.0000
   1896 C          14.0192   11.2228   18.8033 C.ar    1  UNL1        0.0000
   1897 C          -0.1370   10.0777   20.5632 C.ar    1  UNL1        0.0000
   1898 C           9.5921    3.9649   20.6336 C.ar    1  UNL1        0.0000
   1899 C           4.2822   17.1952   18.7372 C.ar    1  UNL1        0.0000
   1900 C          13.7758   11.2874   20.2112 C.ar    1  UNL1        0.0000
   1901 C           0.0757    9.9670   19.1738 C.ar    1  UNL1        0.0000
   1902 C          10.7499    3.2438   21.0793 C.ar    1  UNL1        0.0000
   1903 C           3.1588   17.9301   18.2994 C.ar    1  UNL1        0.0000
   1904 C           4.5501   17.0318   20.0904 C.ar    1  UNL1        0.0000
   1905 C           9.3322    4.0900   19.2512 C.ar    1  UNL1        0.0000
   1906 C          15.1738   10.5643   18.3203 C.ar    1  UNL1        0.0000
   1907 C          -1.2577   10.7308   21.0689 C.ar    1  UNL1        0.0000
   1908 C          13.3900    8.7259   13.1216 C.ar    1  UNL1        0.0000
   1909 C           6.5139   20.2851   13.1989 C.ar    1  UNL1        0.0000
   1910 C          11.3590    7.3330   26.1001 C.ar    1  UNL1        0.0000
   1911 C          -2.0448    8.4094   26.1570 C.ar    1  UNL1        0.0000
   1912 C           8.0254   12.3621   18.7159 C.3     1  UNL1        0.0000
   1913 C           3.5299    5.1042   20.6505 C.3     1  UNL1        0.0000
   1914 C           8.8909    2.9360   26.2114 C.3     1  UNL1        0.0000
   1915 C           6.4709   18.8492   13.1600 C.3     1  UNL1        0.0000
   1916 C          10.0837    6.6713   26.1533 C.3     1  UNL1        0.0000
   1917 C          -0.6577    8.8723   26.1743 C.3     1  UNL1        0.0000
   1918 C          13.4595    8.0571   14.3501 C.ar    1  UNL1        0.0000
   1919 C           2.1668   13.7529   25.0733 C.ar    1  UNL1        0.0000
   1920 C           0.3144   14.8681   14.2205 C.ar    1  UNL1        0.0000
   1921 C          -2.6764    8.1596   24.9321 C.ar    1  UNL1        0.0000
   1922 C          12.0366    7.6272   24.8637 C.ar    1  UNL1        0.0000
   1923 C           1.5857   15.3926   14.2627 C.ar    1  UNL1        0.0000
   1924 C           9.1129    0.7491   25.0209 C.ar    1  UNL1        0.0000
   1925 C          13.5304    6.6580   14.4292 C.ar    1  UNL1        0.0000
   1926 N          13.6132    6.0599   15.6662 N.pl3   1  UNL1        0.0000
   1927 N          11.4574    7.4258   23.6277 N.pl3   1  UNL1        0.0000
   1928 N          12.6761   11.8950   20.7494 N.pl3   1  UNL1        0.0000
   1929 N          11.0936    3.0956   22.3946 N.pl3   1  UNL1        0.0000
   1930 O          11.9095   12.1602   18.1868 O.3     1  UNL1        0.0000
   1931 O           1.6210    8.5613   21.1303 O.3     1  UNL1        0.0000
   1932 O           9.0202    4.6812   22.8060 O.3     1  UNL1        0.0000
   1933 O           5.1009   17.0095   16.5329 O.3     1  UNL1        0.0000
   1934 O           5.9939   15.6507   18.1124 O.3     1  UNL1        0.0000
   1935 O           7.4517    4.8729   21.1883 O.3     1  UNL1        0.0000
   1936 O          13.4992   11.8933   16.6000 O.3     1  UNL1        0.0000
   1937 O           0.7711    9.9174   22.7347 O.3     1  UNL1        0.0000
   1938 O          10.8316   11.5467   15.6155 O.3     1  UNL1        0.0000
   1939 O           3.3070    9.1313   23.2199 O.3     1  UNL1        0.0000
   1940 O          11.6927   13.8648   16.0635 O.3     1  UNL1        0.0000
   1941 O           1.6187    7.3461   23.7199 O.3     1  UNL1        0.0000
   1942 O           6.3345    4.3004   23.7846 O.3     1  UNL1        0.0000
   1943 O           7.6443   16.2595   16.0195 O.3     1  UNL1        0.0000
   1944 O           7.2066    6.5943   23.3183 O.3     1  UNL1        0.0000
   1945 O           5.9974   14.4446   15.5092 O.3     1  UNL1        0.0000
   1946 O           9.2500   12.2253   18.3546 O.3     1  UNL1        0.0000
   1947 O           2.8388    6.1151   21.0338 O.3     1  UNL1        0.0000
   1948 O           8.7413    3.5277   25.0723 O.3     1  UNL1        0.0000
   1949 O           6.4184   18.1440   14.2546 O.3     1  UNL1        0.0000
   1950 O           9.4459    6.3421   25.0666 O.3     1  UNL1        0.0000
   1951 O           4.2474   16.2316   14.2044 O.3     1  UNL1        0.0000
   1952 O           4.7038    4.8497   21.1014 O.3     1  UNL1        0.0000
   1953 O           7.2492   13.2572   18.2279 O.3     1  UNL1        0.0000
   1954 O          13.8741   13.5903   14.1936 O.3     1  UNL1        0.0000
   1955 O          -0.0732    9.1266   25.0543 O.3     1  UNL1        0.0000
   1956 O          13.1751   10.8099   14.2236 O.3     1  UNL1        0.0000
   1957 O           2.1320   10.9867   25.1254 O.3     1  UNL1        0.0000
   1958 O           8.9441   13.8732   16.1299 O.3     1  UNL1        0.0000
   1959 O           4.5279    6.7015   23.1272 O.3     1  UNL1        0.0000
   1960 O          11.4229   12.7377   13.1819 O.3     1  UNL1        0.0000
   1961 O           2.4366    8.4399   26.1551 O.3     1  UNL1        0.0000
   1962 H           5.5387   12.3646   19.7588 H       1  UNL1        0.0000
   1963 H           4.6296   10.8080   21.5163 H       1  UNL1        0.0000
   1964 H           6.0864    9.0492   22.4663 H       1  UNL1        0.0000
   1965 H           9.3318   10.3418   19.9372 H       1  UNL1        0.0000
   1966 H           8.4218    8.7903   21.6937 H       1  UNL1        0.0000
   1967 C           6.4770    9.7177   21.7011 C.ar    1  UNL1        0.0000
   1968 C           6.1577   11.5802   20.1890 C.ar    1  UNL1        0.0000
   1969 C           8.3075   10.4356   20.2915 C.ar    1  UNL1        0.0000
   1970 C           7.8001    9.5744   21.2649 C.ar    1  UNL1        0.0000
   1971 C           5.6555   10.7163   21.1632 C.ar    1  UNL1        0.0000
   1972 C           7.4885   11.4450   19.7498 C.ar    1  UNL1        0.0000
   1973 H          10.4158   16.2070   16.9556 H       1  UNL1        0.0000
   1974 H           9.1064   18.1483   17.7606 H       1  UNL1        0.0000
   1975 H          12.6739   15.7476   17.8549 H       1  UNL1        0.0000
   1976 H          17.1158    5.3094   19.4887 H       1  UNL1        0.0000
   1977 H          -2.3499   17.2804   19.5885 H       1  UNL1        0.0000
   1978 C          12.1162   16.6073   18.2230 C.ar    1  UNL1        0.0000
   1979 C          17.6660    4.4430   19.1277 C.ar    1  UNL1        0.0000
   1980 C          10.0989   17.9652   18.1689 C.ar    1  UNL1        0.0000
   1981 C          -3.3439   17.4572   19.1837 C.ar    1  UNL1        0.0000
   1982 C          10.8363   16.8639   17.7154 C.ar    1  UNL1        0.0000
   1983 C           2.9449    4.1929   19.6385 C.ar    1  UNL1        0.0000
   1984 H           9.0978   10.8861   23.5988 H      30  UNL30       0.0000
   1985 H           9.9220   10.9604   25.1807 H      30  UNL30       0.0000
   1986 H          10.2340    9.6027   24.0647 H      30  UNL30       0.0000
   1987 H           6.5273   11.1855   23.7162 H      30  UNL30       0.0000
   1988 H           4.8071   12.5231   25.4635 H      30  UNL30       0.0000
   1989 H           7.9054    8.7544   24.3536 H      30  UNL30       0.0000
   1990 H           8.6951    8.8898   25.9277 H      30  UNL30       0.0000
   1991 C           5.6001   11.8089   25.6488 C.2    30  UNL30       0.0000
   1992 C           8.3401    9.4678   25.0671 C.3    30  UNL30       0.0000
   1993 C           6.4403   11.1480   24.7940 C.2    30  UNL30       0.0000
   1994 C           9.4638   10.2892   24.4437 C.3    30  UNL30       0.0000
   1995 N           7.2464   10.3293   25.5666 N.pl3  30  UNL30       0.0000
   1996 H          10.3114   19.2386   15.8266 H      29  UNL29       0.0000
   1997 H           9.0218   19.9967   14.8478 H      29  UNL29       0.0000
   1998 H           8.8502   18.2963   15.3727 H      29  UNL29       0.0000
   1999 H          11.6826   17.2254   14.5923 H      29  UNL29       0.0000
   2000 C           9.5601   19.0677   15.0504 C.3    29  UNL29       0.0000
   2001 C          11.2253   17.7309   13.7501 C.3    29  UNL29       0.0000
   2002 N          10.2271   18.6317   13.8192 N.pl3  29  UNL29       0.0000
   2003 TI         -2.5060    2.0139   37.4857 Ti      1  UNL1        0.0000
   2004 TI          8.1651    5.2817   28.0650 Ti      1  UNL1        0.0000
   2005 TI          1.7150   -1.7751   35.6375 Ti      1  UNL1        0.0000
   2006 TI          2.8740    7.4410   29.8690 Ti      1  UNL1        0.0000
   2007 TI          1.8070    9.0858   27.9725 Ti      1  UNL1        0.0000
   2008 TI          3.6218   -1.9659   37.5800 Ti      1  UNL1        0.0000
   2009 TI         -1.5075    0.3144   35.5866 Ti      1  UNL1        0.0000
   2010 TI          6.1783    5.5126   29.9238 Ti      1  UNL1        0.0000
   2011 H          -2.1413    5.9264   37.2689 H      20  UNL20       0.0000
   2012 H           9.1111    1.4058   28.3757 H       1  UNL1        0.0000
   2013 H          -6.4392    1.1204   37.1242 H       1  UNL1        0.0000
   2014 H          11.4765    7.4023   28.2496 H       1  UNL1        0.0000
   2015 H           4.7351   -5.9635   37.1831 H      16  UNL16       0.0000
   2016 H          -2.2267    8.3546   28.3163 H       1  UNL1        0.0000
   2017 H          -1.9649    0.2303   39.2047 H       1  UNL1        0.0000
   2018 H           6.2897    4.9759   26.3751 H       1  UNL1        0.0000
   2019 H           4.1238   -2.6082   32.0653 H       1  UNL1        0.0000
   2020 H           1.1080    9.2126   33.5000 H       1  UNL1        0.0000
   2021 H          -5.6975    3.5596   35.2580 H       1  UNL1        0.0000
   2022 H          11.0036    3.2918   30.3527 H       1  UNL1        0.0000
   2023 H          -3.3661    2.1972   31.9094 H       1  UNL1        0.0000
   2024 H          -1.3416   10.8018   30.3455 H       1  UNL1        0.0000
   2025 H           2.0958   12.1994   28.8301 H       1  UNL1        0.0000
   2026 H           9.0304   -0.6188   29.5763 H       1  UNL1        0.0000
   2027 H           4.9690    7.1958   28.5183 H       1  UNL1        0.0000
   2028 H           0.5779    0.0330   36.9397 H       1  UNL1        0.0000
   2029 H           7.7776    0.1172   35.9489 H       1  UNL1        0.0000
   2030 H           6.3179   -0.4041   36.7038 H       1  UNL1        0.0000
   2031 H           8.1909    4.5694   34.8530 H       1  UNL1        0.0000
   2032 H           7.6000    4.9099   33.2382 H       1  UNL1        0.0000
   2033 H           7.4605   -4.8514   35.7547 H       1  UNL1        0.0000
   2034 H           6.1464   -3.7966   36.2207 H       1  UNL1        0.0000
   2035 C           8.7846    4.5576   30.9242 C.3     1  UNL1        0.0000
   2036 C          -3.4909    2.2451   34.6444 C.3     1  UNL1        0.0000
   2037 C           4.3239   -2.6942   34.6971 C.3     1  UNL1        0.0000
   2038 C           0.8759    9.3418   30.8418 C.3     1  UNL1        0.0000
   2039 C           9.7067    3.9836   31.9136 C.ar    1  UNL1        0.0000
   2040 C          -4.4495    2.8385   33.6734 C.ar    1  UNL1        0.0000
   2041 C           5.2796   -3.2743   33.7439 C.ar    1  UNL1        0.0000
   2042 C          -0.0303    9.9560   31.8474 C.ar    1  UNL1        0.0000
   2043 C           9.4633    4.0482   33.3215 C.ar    1  UNL1        0.0000
   2044 C          -4.2368    2.7278   32.2841 C.ar    1  UNL1        0.0000
   2045 C           6.4374   -3.9954   34.1896 C.ar    1  UNL1        0.0000
   2046 C          -1.1537   10.6909   31.4097 C.ar    1  UNL1        0.0000
   2047 C           0.2376    9.7926   33.2006 C.ar    1  UNL1        0.0000
   2048 C           5.0197   -3.1492   32.3615 C.ar    1  UNL1        0.0000
   2049 C          10.8613    3.3251   31.4306 C.ar    1  UNL1        0.0000
   2050 C          -5.5703    3.4916   34.1792 C.ar    1  UNL1        0.0000
   2051 C           9.0774    1.4867   26.2319 C.ar    1  UNL1        0.0000
   2052 C           2.2014   13.0459   26.3092 C.ar    1  UNL1        0.0000
   2053 C           7.0465    0.0938   39.2104 C.2     1  UNL1        0.0000
   2054 C          -6.3574    1.1702   39.2673 C.2     1  UNL1        0.0000
   2055 C           3.7128    5.1229   31.8261 C.3     1  UNL1        0.0000
   2056 C          -0.7826   -2.1350   33.7608 C.3     1  UNL1        0.0000
   2057 C           4.5784   -4.3032   39.3217 C.3     1  UNL1        0.0000
   2058 C           2.1584   11.6100   26.2702 C.3     1  UNL1        0.0000
   2059 C           5.7712   -0.5679   39.2636 C.2     1  UNL1        0.0000
   2060 C          -4.9702    1.6331   39.2845 C.2     1  UNL1        0.0000
   2061 C           9.1469    0.8179   27.4604 C.ar    1  UNL1        0.0000
   2062 C          -2.1457    6.5137   38.1835 C.2    20  UNL20       0.0000
   2063 C          -3.9982    7.6289   27.3308 C.ar    1  UNL1        0.0000
   2064 C          -6.9890    0.9204   38.0424 C.2     1  UNL1        0.0000
   2065 C           7.7241    0.3880   37.9739 C.2     1  UNL1        0.0000
   2066 C          -2.7268    8.1534   27.3730 C.ar    1  UNL1        0.0000
   2067 C           4.8004   -6.4901   38.1312 C.2    16  UNL16       0.0000
   2068 C           9.2178   -0.5812   27.5394 C.ar    1  UNL1        0.0000
   2069 N           9.3006   -1.1793   28.7764 N.pl3   1  UNL1        0.0000
   2070 N           7.1449    0.1866   36.7380 N.pl3   1  UNL1        0.0000
   2071 N           8.3636    4.6557   33.8596 N.pl3   1  UNL1        0.0000
   2072 N           6.7810   -4.1436   35.5049 N.pl3   1  UNL1        0.0000
   2073 O           7.5969    4.9210   31.2971 O.3     1  UNL1        0.0000
   2074 O          -2.6916    1.3221   34.2406 O.3     1  UNL1        0.0000
   2075 O           4.7076   -2.5580   35.9163 O.3     1  UNL1        0.0000
   2076 O           0.7884    9.7703   29.6432 O.3     1  UNL1        0.0000
   2077 O           1.6814    8.4115   31.2227 O.3     1  UNL1        0.0000
   2078 O           3.1391   -2.3663   34.2986 O.3     1  UNL1        0.0000
   2079 O           9.1866    4.6541   29.7103 O.3     1  UNL1        0.0000
   2080 O          -3.5414    2.6782   35.8450 O.3     1  UNL1        0.0000
   2081 O           6.5191    4.3075   28.7258 O.3     1  UNL1        0.0000
   2082 O          -1.0055    1.8921   36.3302 O.3     1  UNL1        0.0000
   2083 O           7.3802    6.6256   29.1737 O.3     1  UNL1        0.0000
   2084 O          -2.6938    0.1069   36.8302 O.3     1  UNL1        0.0000
   2085 O           2.0220   -2.9388   36.8949 O.3     1  UNL1        0.0000
   2086 O           3.3318    9.0203   29.1298 O.3     1  UNL1        0.0000
   2087 O           2.8940   -0.6449   36.4286 O.3     1  UNL1        0.0000
   2088 O           1.6849    7.2054   28.6194 O.3     1  UNL1        0.0000
   2089 O           4.9375    4.9861   31.4649 O.3     1  UNL1        0.0000
   2090 O          -1.4738   -1.1241   34.1441 O.3     1  UNL1        0.0000
   2091 O           4.4288   -3.7115   38.1826 O.3     1  UNL1        0.0000
   2092 O           2.1059   10.9048   27.3649 O.3     1  UNL1        0.0000
   2093 O           5.1333   -0.8971   38.1769 O.2     1  UNL1        0.0000
   2094 O          -0.0651    8.9924   27.3147 O.3     1  UNL1        0.0000
   2095 O           0.3913   -2.3895   34.2117 O.3     1  UNL1        0.0000
   2096 O           2.9367    6.0180   31.3382 O.3     1  UNL1        0.0000
   2097 O           9.5616    6.3511   27.3039 O.3     1  UNL1        0.0000
   2098 O          -4.3858    1.8874   38.1645 O.2     1  UNL1        0.0000
   2099 O           8.8625    3.5707   27.3338 O.3     1  UNL1        0.0000
   2100 O          -2.1805    3.7475   38.2357 O.3     1  UNL1        0.0000
   2101 O           4.6315    6.6340   29.2402 O.3     1  UNL1        0.0000
   2102 O           0.2154   -0.5377   36.2375 O.3     1  UNL1        0.0000
   2103 O           7.1103    5.4985   26.2921 O.3     1  UNL1        0.0000
   2104 O          -1.8759    1.2007   39.2653 O.3     1  UNL1        0.0000
   2105 H           1.2262    5.1254   32.8691 H       1  UNL1        0.0000
   2106 H           0.3171    3.5688   34.6266 H       1  UNL1        0.0000
   2107 H           1.7738    1.8100   35.5766 H       1  UNL1        0.0000
   2108 H           5.0193    3.1026   33.0474 H       1  UNL1        0.0000
   2109 H           4.1093    1.5511   34.8039 H       1  UNL1        0.0000
   2110 C           2.1644    2.4785   34.8114 C.ar    1  UNL1        0.0000
   2111 C           1.8452    4.3410   33.2993 C.ar    1  UNL1        0.0000
   2112 C           3.9950    3.1964   33.4017 C.ar    1  UNL1        0.0000
   2113 C           3.4876    2.3352   34.3751 C.ar    1  UNL1        0.0000
   2114 C           1.3430    3.4771   34.2734 C.ar    1  UNL1        0.0000
   2115 C           3.1760    4.2058   32.8601 C.ar    1  UNL1        0.0000
   2116 H           6.1033    8.9678   30.0659 H       1  UNL1        0.0000
   2117 H           4.7939   10.9091   30.8709 H       1  UNL1        0.0000
   2118 H           8.3614    8.5084   30.9651 H       1  UNL1        0.0000
   2119 H          12.8033   -1.9298   32.5990 H       1  UNL1        0.0000
   2120 H          -6.6624   10.0412   32.6988 H       1  UNL1        0.0000
   2121 C           7.8036    9.3680   31.3332 C.ar    1  UNL1        0.0000
   2122 C          13.3535   -2.7962   32.2379 C.ar    1  UNL1        0.0000
   2123 C           5.7864   10.7260   31.2792 C.ar    1  UNL1        0.0000
   2124 C          -7.6564   10.2180   32.2939 C.ar    1  UNL1        0.0000
   2125 C           6.5237    9.6247   30.8257 C.ar    1  UNL1        0.0000
   2126 C          -1.3677   -3.0463   32.7488 C.ar    1  UNL1        0.0000
   2127 H           4.7852    3.6469   36.7090 H      31  UNL31       0.0000
   2128 H           5.6095    3.7212   38.2909 H      31  UNL31       0.0000
   2129 H           5.9215    2.3635   37.1749 H      31  UNL31       0.0000
   2130 H           2.2148    3.9463   36.8265 H      31  UNL31       0.0000
   2131 H           0.4945    5.2839   38.5738 H      31  UNL31       0.0000
   2132 H           3.5928    1.5152   37.4639 H      31  UNL31       0.0000
   2133 H           4.3826    1.6506   39.0380 H      31  UNL31       0.0000
   2134 C           1.2876    4.5697   38.7591 C.3    31  UNL31       0.0000
   2135 C           4.0276    2.2286   38.1774 C.3    31  UNL31       0.0000
   2136 C           2.1277    3.9088   37.9043 C.2    31  UNL31       0.0000
   2137 C           5.1513    3.0500   37.5540 C.3    31  UNL31       0.0000
   2138 N           2.9339    3.0901   38.6769 N.2    31  UNL31       0.0000
   2139 H           5.9989   11.9994   28.9369 H      30  UNL30       0.0000
   2140 H           4.7093   12.7574   27.9581 H      30  UNL30       0.0000
   2141 H           4.5377   11.0571   28.4830 H      30  UNL30       0.0000
   2142 H           7.3700    9.9862   27.7026 H      30  UNL30       0.0000
   2143 C           5.2476   11.8285   28.1606 C.3    30  UNL30       0.0000
   2144 C           6.9128   10.4917   26.8604 C.3    30  UNL30       0.0000
   2145 N           5.9145   11.3925   26.9294 N.pl3  30  UNL30       0.0000
   2146 TI         -0.9028   30.8691   11.2652 Ti      1  UNL1        0.0000
   2147 TI          9.7682   34.1369    1.8444 Ti      1  UNL1        0.0000
   2148 TI          3.3181   27.0801    9.4170 Ti      1  UNL1        0.0000
   2149 TI          4.4772   36.2962    3.6484 Ti      1  UNL1        0.0000
   2150 TI          3.4101   37.9411    1.7520 Ti      1  UNL1        0.0000
   2151 TI          5.2250   26.8893   11.3595 Ti      1  UNL1        0.0000
   2152 TI          0.0956   29.1696    9.3660 Ti      1  UNL1        0.0000
   2153 TI          7.7814   34.3678    3.7033 Ti      1  UNL1        0.0000
   2154 H          -0.5382   34.7816   11.0484 H       1  UNL1        0.0000
   2155 H          10.7143   30.2610    2.1552 H       1  UNL1        0.0000
   2156 H          -4.8361   29.9756   10.9036 H       1  UNL1        0.0000
   2157 H          13.0796   36.2575    2.0291 H      24  UNL24       0.0000
   2158 H           6.3382   22.8917   10.9625 H       1  UNL1        0.0000
   2159 H          -0.6235   37.2098    2.0957 H      21  UNL21       0.0000
   2160 H          -0.3617   29.0855   12.9842 H       1  UNL1        0.0000
   2161 H           7.8928   33.8311    0.1546 H       1  UNL1        0.0000
   2162 H           5.7269   26.2470    5.8447 H       1  UNL1        0.0000
   2163 H           2.7111   38.0678    7.2795 H       1  UNL1        0.0000
   2164 H          -4.0944   32.4148    9.0374 H       1  UNL1        0.0000
   2165 H          12.6067   32.1470    4.1322 H       1  UNL1        0.0000
   2166 H          -1.7630   31.0524    5.6889 H       1  UNL1        0.0000
   2167 H           0.2615   39.6570    4.1249 H       1  UNL1        0.0000
   2168 H           3.6989   41.0546    2.6096 H      32  UNL32       0.0000
   2169 H          10.6335   28.2364    3.3557 H       1  UNL1        0.0000
   2170 H           6.5721   36.0510    2.2978 H       1  UNL1        0.0000
   2171 H           2.1810   28.8882   10.7192 H       1  UNL1        0.0000
   2172 H           9.3807   28.9724    9.7284 H       1  UNL1        0.0000
   2173 H           7.9210   28.4512   10.4833 H       1  UNL1        0.0000
   2174 H           9.7940   33.4246    8.6325 H       1  UNL1        0.0000
   2175 H           9.2031   33.7651    7.0176 H       1  UNL1        0.0000
   2176 H           9.0636   24.0038    9.5342 H       1  UNL1        0.0000
   2177 H           7.7495   25.0586   10.0002 H       1  UNL1        0.0000
   2178 C          10.3877   33.4128    4.7037 C.3     1  UNL1        0.0000
   2179 C          -1.8878   31.1003    8.4239 C.3     1  UNL1        0.0000
   2180 C           5.9270   26.1610    8.4766 C.3     1  UNL1        0.0000
   2181 C           2.4790   38.1970    4.6213 C.3     1  UNL1        0.0000
   2182 C          11.3098   32.8389    5.6930 C.ar    1  UNL1        0.0000
   2183 C          -2.8464   31.6937    7.4529 C.ar    1  UNL1        0.0000
   2184 C           6.8827   25.5809    7.5233 C.ar    1  UNL1        0.0000
   2185 C           1.5728   38.8112    5.6269 C.2     1  UNL1        0.0000
   2186 C          11.0664   32.9034    7.1009 C.ar    1  UNL1        0.0000
   2187 C          -2.6337   31.5830    6.0635 C.ar    1  UNL1        0.0000
   2188 C           8.0405   24.8598    7.9691 C.ar    1  UNL1        0.0000
   2189 C           0.4494   39.5461    5.1891 C.3     1  UNL1        0.0000
   2190 C           1.8407   38.6478    6.9801 C.2     1  UNL1        0.0000
   2191 C           6.6228   25.7060    6.1410 C.ar    1  UNL1        0.0000
   2192 C          12.4644   32.1803    5.2100 C.ar    1  UNL1        0.0000
   2193 C          -3.9671   32.3468    7.9586 C.ar    1  UNL1        0.0000
   2194 C          10.6806   30.3419    0.0113 C.3     1  UNL1        0.0000
   2195 C           3.8045   41.9011    0.0887 C.3     1  UNL1        0.0000
   2196 C           8.6496   28.9490   12.9898 C.ar    1  UNL1        0.0000
   2197 C          -4.7542   30.0254   13.0467 C.ar    1  UNL1        0.0000
   2198 C           5.3160   33.9781    5.6056 C.3     1  UNL1        0.0000
   2199 C           0.8205   26.7202    7.5402 C.3     1  UNL1        0.0000
   2200 C           6.1815   24.5520   13.1012 C.3     1  UNL1        0.0000
   2201 C           3.7615   40.4652    0.0497 C.3     1  UNL1        0.0000
   2202 C           7.3743   28.2873   13.0430 C.3     1  UNL1        0.0000
   2203 C          -3.3671   30.4883   13.0640 C.3     1  UNL1        0.0000
   2204 C          10.7500   29.6731    1.2398 C.2     1  UNL1        0.0000
   2205 C          -0.5426   35.3689   11.9630 C.3     1  UNL1        0.0000
   2206 C          -2.3950   36.4842    1.1102 C.2    21  UNL21       0.0000
   2207 C          -5.3858   29.7756   11.8218 C.ar    1  UNL1        0.0000
   2208 C           9.3272   29.2432   11.7534 C.ar    1  UNL1        0.0000
   2209 C          -1.1237   37.0086    1.1525 C.2    21  UNL21       0.0000
   2210 C           6.4035   22.3652   11.9106 C.ar    1  UNL1        0.0000
   2211 C          10.8210   28.2740    1.3189 C.2     1  UNL1        0.0000
   2212 N          10.9038   27.6760    2.5559 N.pl3   1  UNL1        0.0000
   2213 N           8.7480   29.0418   10.5174 N.pl3   1  UNL1        0.0000
   2214 N           9.9667   33.5110    7.6391 N.pl3   1  UNL1        0.0000
   2215 N           8.3842   24.7116    9.2844 N.pl3   1  UNL1        0.0000
   2216 O           9.2001   33.7763    5.0765 O.3     1  UNL1        0.0000
   2217 O          -1.0884   30.1773    8.0200 O.3     1  UNL1        0.0000
   2218 O           6.3108   26.2972    9.6957 O.3     1  UNL1        0.0000
   2219 O           2.3915   38.6256    3.4226 O.3     1  UNL1        0.0000
   2220 O           3.2845   37.2667    5.0021 O.3     1  UNL1        0.0000
   2221 O           4.7423   26.4890    8.0781 O.3     1  UNL1        0.0000
   2222 O          10.7897   33.5093    3.4898 O.3     1  UNL1        0.0000
   2223 O          -1.9383   31.5334    9.6244 O.3     1  UNL1        0.0000
   2224 O           8.1222   33.1627    2.5052 O.3     1  UNL1        0.0000
   2225 O           0.5976   30.7474   10.1096 O.3     1  UNL1        0.0000
   2226 O           8.9833   35.4808    2.9532 O.3     1  UNL1        0.0000
   2227 O          -1.0907   28.9621   10.6096 O.3     1  UNL1        0.0000
   2228 O           3.6251   25.9164   10.6743 O.3     1  UNL1        0.0000
   2229 O           4.9349   37.8755    2.9093 O.3     1  UNL1        0.0000
   2230 O           4.4972   28.2103   10.2080 O.3     1  UNL1        0.0000
   2231 O           3.2880   36.0607    2.3989 O.3     1  UNL1        0.0000
   2232 O           6.5406   33.8413    5.2443 O.3     1  UNL1        0.0000
   2233 O           0.1294   27.7311    7.9235 O.3     1  UNL1        0.0000
   2234 O           6.0319   25.1437   11.9620 O.3     1  UNL1        0.0000
   2235 O           3.7090   39.7600    1.1444 O.3     1  UNL1        0.0000
   2236 O           6.7365   27.9581   11.9563 O.3     1  UNL1        0.0000
   2237 O           1.5380   37.8476    1.0941 O.3     1  UNL1        0.0000
   2238 O           1.9944   26.4657    7.9912 O.3     1  UNL1        0.0000
   2239 O           4.5398   34.8732    5.1176 O.3     1  UNL1        0.0000
   2240 O          11.1647   35.2063    1.0833 O.3     1  UNL1        0.0000
   2241 O          -2.7826   30.7426   11.9440 O.3     1  UNL1        0.0000
   2242 O          10.4657   32.4259    1.1133 O.3     1  UNL1        0.0000
   2243 O          -0.5774   32.6028   12.0151 O.2     1  UNL1        0.0000
   2244 O           6.2347   35.4892    3.0197 O.3     1  UNL1        0.0000
   2245 O           1.8185   28.3175   10.0169 O.3     1  UNL1        0.0000
   2246 O           8.7135   34.3538    0.0716 O.3     1  UNL1        0.0000
   2247 O          -0.2728   30.0559   13.0448 O.3     1  UNL1        0.0000
   2248 H           2.8293   33.9807    6.6485 H       1  UNL1        0.0000
   2249 H           1.9202   32.4240    8.4060 H       1  UNL1        0.0000
   2250 H           3.3770   30.6652    9.3560 H       1  UNL1        0.0000
   2251 H           6.6224   31.9578    6.8269 H       1  UNL1        0.0000
   2252 H           5.7124   30.4063    8.5834 H       1  UNL1        0.0000
   2253 C           3.7676   31.3338    8.5908 C.ar    1  UNL1        0.0000
   2254 C           3.4483   33.1962    7.0787 C.ar    1  UNL1        0.0000
   2255 C           5.5981   32.0517    7.1812 C.ar    1  UNL1        0.0000
   2256 C           5.0907   31.1904    8.1546 C.ar    1  UNL1        0.0000
   2257 C           2.9461   32.3323    8.0529 C.ar    1  UNL1        0.0000
   2258 C           4.7791   33.0610    6.6396 C.ar    1  UNL1        0.0000
   2259 H           7.7064   37.8230    3.8453 H      33  UNL33       0.0000
   2260 H           6.3970   39.7643    4.6503 H      33  UNL33       0.0000
   2261 H           9.9645   37.3636    4.7446 H      33  UNL33       0.0000
   2262 H          14.4064   26.9254    6.3785 H       1  UNL1        0.0000
   2263 H          -5.0593   38.8964    6.4782 H      11  UNL11       0.0000
   2264 C           9.4068   38.2233    5.1127 C.2    33  UNL33       0.0000
   2265 C          14.9566   26.0590    6.0174 C.ar    1  UNL1        0.0000
   2266 C           7.3895   39.5812    5.0587 C.2    33  UNL33       0.0000
   2267 C          -6.0533   39.0732    6.0734 C.2    11  UNL11       0.0000
   2268 C           8.1268   38.4799    4.6051 C.2    33  UNL33       0.0000
   2269 C           0.2354   25.8089    6.5282 C.ar    1  UNL1        0.0000
   2270 H           6.3884   32.5021   10.4885 H      34  UNL34       0.0000
   2271 H           7.2126   32.5764   12.0704 H      34  UNL34       0.0000
   2272 H           7.5246   31.2187   10.9544 H      34  UNL34       0.0000
   2273 H           3.8179   32.8015   10.6060 H      34  UNL34       0.0000
   2274 H           2.0977   34.1391   12.3532 H      34  UNL34       0.0000
   2275 H           5.1960   30.3705   11.2434 H      34  UNL34       0.0000
   2276 H           5.9857   30.5058   12.8174 H      34  UNL34       0.0000
   2277 C           2.8907   33.4249   12.5385 C.2    34  UNL34       0.0000
   2278 C           5.6307   31.0838   11.9568 C.3    34  UNL34       0.0000
   2279 C           3.7309   32.7640   11.6838 C.2    34  UNL34       0.0000
   2280 C           6.7544   31.9052   11.3334 C.3    34  UNL34       0.0000
   2281 N           4.5370   31.9453   12.4564 N.pl3  34  UNL34       0.0000
   2282 H           7.6020   40.8546    2.7163 H      22  UNL22       0.0000
   2283 H           6.3124   41.6127    1.7375 H      22  UNL22       0.0000
   2284 H           6.1408   39.9123    2.2624 H      22  UNL22       0.0000
   2285 H           8.9732   38.8414    1.4820 H      22  UNL22       0.0000
   2286 C           6.8507   40.6837    1.9401 C.3    22  UNL22       0.0000
   2287 C           8.5159   39.3469    0.6399 C.2    22  UNL22       0.0000
   2288 N           7.5177   40.2477    0.7089 N.2    22  UNL22       0.0000
   2289 TI         -5.2154   23.6299   24.3754 Ti      1  UNL1        0.0000
   2290 TI          5.4557   26.8977   14.9547 Ti      1  UNL1        0.0000
   2291 TI         -0.9944   19.8409   22.5273 Ti      1  UNL1        0.0000
   2292 TI          0.1646   29.0570   16.7587 Ti      1  UNL1        0.0000
   2293 TI         -0.9024   30.7018   14.8622 Ti      1  UNL1        0.0000
   2294 TI          0.9124   19.6501   24.4698 Ti      1  UNL1        0.0000
   2295 TI         -4.2169   21.9304   22.4763 Ti      1  UNL1        0.0000
   2296 TI          3.4689   27.1286   16.8136 Ti      1  UNL1        0.0000
   2297 H          -4.8507   27.5424   24.1586 H       1  UNL1        0.0000
   2298 H           6.4017   23.0218   15.2654 H       1  UNL1        0.0000
   2299 H          -9.1486   22.7364   24.0139 H       1  UNL1        0.0000
   2300 H           8.7671   29.0183   15.1394 H       1  UNL1        0.0000
   2301 H           2.0257   15.6525   24.0728 H       1  UNL1        0.0000
   2302 H          -4.9361   29.9706   15.2060 H       1  UNL1        0.0000
   2303 H          -4.6743   21.8463   26.0944 H       1  UNL1        0.0000
   2304 H           3.5803   26.5919   13.2649 H       1  UNL1        0.0000
   2305 H           1.4144   19.0078   18.9550 H       1  UNL1        0.0000
   2306 H          -1.6014   30.8286   20.3897 H       1  UNL1        0.0000
   2307 H          -8.4069   25.1756   22.1477 H       1  UNL1        0.0000
   2308 H           8.2942   24.9078   17.2425 H       1  UNL1        0.0000
   2309 H          -6.0755   23.8132   18.7991 H       1  UNL1        0.0000
   2310 H          -4.0510   32.4178   17.2352 H       1  UNL1        0.0000
   2311 H          -0.6136   33.8154   15.7198 H      35  UNL35       0.0000
   2312 H           6.3210   20.9972   16.4660 H       1  UNL1        0.0000
   2313 H           2.2596   28.8118   15.4080 H       1  UNL1        0.0000
   2314 H          -2.1315   21.6490   23.8294 H       1  UNL1        0.0000
   2315 H           5.0682   21.7332   22.8387 H       1  UNL1        0.0000
   2316 H           3.6085   21.2120   23.5936 H       1  UNL1        0.0000
   2317 H           5.4814   26.1854   21.7428 H       1  UNL1        0.0000
   2318 H           4.8906   26.5259   20.1279 H       1  UNL1        0.0000
   2319 H           4.7511   16.7646   22.6444 H       1  UNL1        0.0000
   2320 H           3.4370   17.8194   23.1105 H       1  UNL1        0.0000
   2321 C           6.0752   26.1736   17.8139 C.3     1  UNL1        0.0000
   2322 C          -6.2003   23.8611   21.5341 C.3     1  UNL1        0.0000
   2323 C           1.6145   18.9218   21.5868 C.3     1  UNL1        0.0000
   2324 C          -1.8335   30.9578   17.7315 C.3     1  UNL1        0.0000
   2325 C           6.9973   25.5997   18.8033 C.ar    1  UNL1        0.0000
   2326 C          -7.1589   24.4545   20.5632 C.ar    1  UNL1        0.0000
   2327 C           2.5702   18.3417   20.6336 C.ar    1  UNL1        0.0000
   2328 C          -2.7397   31.5720   18.7372 C.2     1  UNL1        0.0000
   2329 C           6.7539   25.6642   20.2112 C.ar    1  UNL1        0.0000
   2330 C          -6.9462   24.3438   19.1738 C.ar    1  UNL1        0.0000
   2331 C           3.7280   17.6206   21.0793 C.ar    1  UNL1        0.0000
   2332 C          -3.8631   32.3069   18.2994 C.3     1  UNL1        0.0000
   2333 C          -2.4718   31.4086   20.0904 C.2     1  UNL1        0.0000
   2334 C           2.3103   18.4668   19.2512 C.ar    1  UNL1        0.0000
   2335 C           8.1519   24.9411   18.3203 C.ar    1  UNL1        0.0000
   2336 C          -8.2797   25.1076   21.0689 C.ar    1  UNL1        0.0000
   2337 C           6.3680   23.1027   13.1216 C.ar    1  UNL1        0.0000
   2338 C          -0.5080   34.6619   13.1989 C.2     1  UNL1        0.0000
   2339 C           4.3371   21.7098   26.1001 C.ar    1  UNL1        0.0000
   2340 C          -9.0668   22.7862   26.1570 C.ar    1  UNL1        0.0000
   2341 C           1.0034   26.7389   18.7159 C.3     1  UNL1        0.0000
   2342 C          -3.4920   19.4810   20.6505 C.3     1  UNL1        0.0000
   2343 C           1.8689   17.3128   26.2114 C.3     1  UNL1        0.0000
   2344 C          -0.5510   33.2260   13.1600 C.2     1  UNL1        0.0000
   2345 C           3.0618   21.0481   26.1533 C.3     1  UNL1        0.0000
   2346 C          -7.6796   23.2491   26.1743 C.3     1  UNL1        0.0000
   2347 C           6.4375   22.4339   14.3501 C.ar    1  UNL1        0.0000
   2348 C          -4.8551   28.1297   25.0733 C.3     1  UNL1        0.0000
   2349 C          -6.7076   29.2450   14.2205 C.ar    1  UNL1        0.0000
   2350 C          -9.6984   22.5364   24.9321 C.ar    1  UNL1        0.0000
   2351 C           5.0147   22.0040   24.8637 C.ar    1  UNL1        0.0000
   2352 C          -5.4362   29.7694   14.2627 C.ar    1  UNL1        0.0000
   2353 C           2.0910   15.1260   25.0209 C.ar    1  UNL1        0.0000
   2354 C           6.5084   21.0348   14.4292 C.ar    1  UNL1        0.0000
   2355 N           6.5912   20.4368   15.6662 N.pl3   1  UNL1        0.0000
   2356 N           4.4354   21.8026   23.6277 N.pl3   1  UNL1        0.0000
   2357 N           5.6542   26.2718   20.7494 N.pl3   1  UNL1        0.0000
   2358 N           4.0716   17.4724   22.3946 N.pl3   1  UNL1        0.0000
   2359 O           4.8875   26.5371   18.1868 O.3     1  UNL1        0.0000
   2360 O          -5.4010   22.9381   21.1303 O.3     1  UNL1        0.0000
   2361 O           1.9982   19.0580   22.8060 O.3     1  UNL1        0.0000
   2362 O          -1.9210   31.3864   16.5329 O.3     1  UNL1        0.0000
   2363 O          -1.0280   30.0275   18.1124 O.3     1  UNL1        0.0000
   2364 O           0.4297   19.2497   21.1883 O.3     1  UNL1        0.0000
   2365 O           6.4772   26.2701   16.6000 O.3     1  UNL1        0.0000
   2366 O          -6.2508   24.2942   22.7347 O.3     1  UNL1        0.0000
   2367 O           3.8097   25.9235   15.6155 O.3     1  UNL1        0.0000
   2368 O          -3.7150   23.5082   23.2199 O.3     1  UNL1        0.0000
   2369 O           4.6708   28.2416   16.0635 O.3     1  UNL1        0.0000
   2370 O          -5.4032   21.7229   23.7199 O.3     1  UNL1        0.0000
   2371 O          -0.6874   18.6772   23.7846 O.3     1  UNL1        0.0000
   2372 O           0.6224   30.6363   16.0195 O.3     1  UNL1        0.0000
   2373 O           0.1846   20.9711   23.3183 O.3     1  UNL1        0.0000
   2374 O          -1.0245   28.8215   15.5092 O.3     1  UNL1        0.0000
   2375 O           2.2281   26.6021   18.3546 O.3     1  UNL1        0.0000
   2376 O          -4.1832   20.4919   21.0338 O.3     1  UNL1        0.0000
   2377 O           1.7194   17.9045   25.0723 O.3     1  UNL1        0.0000
   2378 O          -0.6035   32.5208   14.2546 O.2     1  UNL1        0.0000
   2379 O           2.4239   20.7189   25.0666 O.3     1  UNL1        0.0000
   2380 O          -2.7745   30.6084   14.2044 O.3     1  UNL1        0.0000
   2381 O          -2.3181   19.2265   21.1014 O.3     1  UNL1        0.0000
   2382 O           0.2272   27.6340   18.2279 O.3     1  UNL1        0.0000
   2383 O           6.8522   27.9671   14.1936 O.3     1  UNL1        0.0000
   2384 O          -7.0952   23.5034   25.0543 O.3     1  UNL1        0.0000
   2385 O           6.1531   25.1867   14.2236 O.3     1  UNL1        0.0000
   2386 O          -4.8899   25.3636   25.1254 O.2     1  UNL1        0.0000
   2387 O           1.9221   28.2500   16.1299 O.3     1  UNL1        0.0000
   2388 O          -2.4940   21.0783   23.1272 O.3     1  UNL1        0.0000
   2389 O           4.4009   27.1146   13.1819 O.3     1  UNL1        0.0000
   2390 O          -4.5853   22.8167   26.1551 O.3     1  UNL1        0.0000
   2391 H          -1.4832   26.7415   19.7588 H       1  UNL1        0.0000
   2392 H          -2.3923   25.1848   21.5163 H       1  UNL1        0.0000
   2393 H          -0.9356   23.4260   22.4663 H       1  UNL1        0.0000
   2394 H           2.3099   24.7186   19.9372 H       1  UNL1        0.0000
   2395 H           1.3999   23.1671   21.6937 H       1  UNL1        0.0000
   2396 C          -0.5450   24.0946   21.7011 C.ar    1  UNL1        0.0000
   2397 C          -0.8642   25.9570   20.1890 C.ar    1  UNL1        0.0000
   2398 C           1.2856   24.8125   20.2915 C.ar    1  UNL1        0.0000
   2399 C           0.7782   23.9512   21.2649 C.ar    1  UNL1        0.0000
   2400 C          -1.3665   25.0931   21.1632 C.ar    1  UNL1        0.0000
   2401 C           0.4666   25.8218   19.7498 C.ar    1  UNL1        0.0000
   2402 H           3.3939   30.5838   16.9556 H      36  UNL36       0.0000
   2403 H           2.0845   32.5251   17.7606 H      36  UNL36       0.0000
   2404 H           5.6520   30.1244   17.8549 H      36  UNL36       0.0000
   2405 H          10.0939   19.6862   19.4887 H       1  UNL1        0.0000
   2406 H          -9.3718   31.6572   19.5885 H      15  UNL15       0.0000
   2407 C           5.0942   30.9841   18.2230 C.2    36  UNL36       0.0000
   2408 C          10.6441   18.8198   19.1277 C.ar    1  UNL1        0.0000
   2409 C           3.0770   32.3420   18.1689 C.2    36  UNL36       0.0000
   2410 C         -10.3658   31.8340   19.1837 C.2    15  UNL15       0.0000
   2411 C           3.8143   31.2407   17.7154 C.2    36  UNL36       0.0000
   2412 C          -4.0771   18.5697   19.6385 C.ar    1  UNL1        0.0000
   2413 H           2.0758   25.2629   23.5988 H      37  UNL37       0.0000
   2414 H           2.9001   25.3372   25.1807 H      37  UNL37       0.0000
   2415 H           3.2121   23.9795   24.0647 H      37  UNL37       0.0000
   2416 H          -0.4946   25.5623   23.7162 H      37  UNL37       0.0000
   2417 H          -2.2149   26.8999   25.4635 H      37  UNL37       0.0000
   2418 H           0.8834   23.1313   24.3536 H      37  UNL37       0.0000
   2419 H           1.6732   23.2666   25.9277 H      37  UNL37       0.0000
   2420 C          -1.4218   26.1857   25.6488 C.2    37  UNL37       0.0000
   2421 C           1.3182   23.8446   25.0671 C.3    37  UNL37       0.0000
   2422 C          -0.5817   25.5248   24.7940 C.2    37  UNL37       0.0000
   2423 C           2.4419   24.6660   24.4437 C.3    37  UNL37       0.0000
   2424 N           0.2245   24.7061   25.5666 N.pl3  37  UNL37       0.0000
   2425 H           3.2895   33.6154   15.8266 H      34  UNL34       0.0000
   2426 H           1.9999   34.3735   14.8478 H      34  UNL34       0.0000
   2427 H           1.8283   32.6731   15.3727 H      34  UNL34       0.0000
   2428 H           4.6606   31.6022   14.5923 H      34  UNL34       0.0000
   2429 C           2.5382   33.4445   15.0504 C.3    34  UNL34       0.0000
   2430 C           4.2034   32.1077   13.7501 C.3    34  UNL34       0.0000
   2431 N           3.2051   33.0085   13.8192 N.pl3  34  UNL34       0.0000
   2432 TI         -9.5279   16.3907   37.4857 Ti      1  UNL1        0.0000
   2433 TI          1.1432   19.6585   28.0650 Ti      1  UNL1        0.0000
   2434 TI         -5.3069   12.6017   35.6375 Ti      1  UNL1        0.0000
   2435 TI         -4.1479   21.8178   29.8690 Ti      1  UNL1        0.0000
   2436 TI         -5.2149   23.4626   27.9725 Ti      1  UNL1        0.0000
   2437 TI         -3.4001   12.4109   37.5800 Ti      1  UNL1        0.0000
   2438 TI         -8.5294   14.6912   35.5866 Ti      1  UNL1        0.0000
   2439 TI         -0.8436   19.8894   29.9238 Ti      1  UNL1        0.0000
   2440 H          -9.1632   20.3032   37.2689 H      23  UNL23       0.0000
   2441 H           2.0892   15.7826   28.3757 H       1  UNL1        0.0000
   2442 H         -13.4611   15.4972   37.1242 H       1  UNL1        0.0000
   2443 H           4.4546   21.7791   28.2496 H       1  UNL1        0.0000
   2444 H          -2.2868    8.4133   37.1831 H      20  UNL20       0.0000
   2445 H          -9.2486   22.7314   28.3163 H       1  UNL1        0.0000
   2446 H          -8.9868   14.6071   39.2047 H       1  UNL1        0.0000
   2447 H          -0.7323   19.3527   26.3751 H       1  UNL1        0.0000
   2448 H          -2.8981   11.7686   32.0653 H       1  UNL1        0.0000
   2449 H          -5.9140   23.5894   33.5000 H       1  UNL1        0.0000
   2450 H         -12.7195   17.9364   35.2580 H       1  UNL1        0.0000
   2451 H           3.9817   17.6686   30.3527 H       1  UNL1        0.0000
   2452 H         -10.3881   16.5740   31.9094 H       1  UNL1        0.0000
   2453 H          -8.3635   25.1786   30.3455 H       1  UNL1        0.0000
   2454 H          -4.9261   26.5762   28.8301 H      38  UNL38       0.0000
   2455 H           2.0085   13.7580   29.5763 H       1  UNL1        0.0000
   2456 H          -2.0529   21.5726   28.5183 H       1  UNL1        0.0000
   2457 H          -6.4441   14.4098   36.9397 H       1  UNL1        0.0000
   2458 H           0.7556   14.4940   35.9489 H       1  UNL1        0.0000
   2459 H          -0.7041   13.9728   36.7038 H       1  UNL1        0.0000
   2460 H           1.1689   18.9462   34.8530 H       1  UNL1        0.0000
   2461 H           0.5780   19.2867   33.2382 H       1  UNL1        0.0000
   2462 H           0.4385    9.5254   35.7547 H       1  UNL1        0.0000
   2463 H          -0.8756   10.5802   36.2207 H       1  UNL1        0.0000
   2464 C           1.7627   18.9344   30.9242 C.3     1  UNL1        0.0000
   2465 C         -10.5129   16.6219   34.6444 C.3     1  UNL1        0.0000
   2466 C          -2.6980   11.6826   34.6971 C.3     1  UNL1        0.0000
   2467 C          -6.1460   23.7186   30.8418 C.3     1  UNL1        0.0000
   2468 C           2.6847   18.3605   31.9136 C.ar    1  UNL1        0.0000
   2469 C         -11.4714   17.2153   33.6734 C.ar    1  UNL1        0.0000
   2470 C          -1.7423   11.1025   33.7439 C.ar    1  UNL1        0.0000
   2471 C          -7.0522   24.3328   31.8474 C.2     1  UNL1        0.0000
   2472 C           2.4414   18.4250   33.3215 C.ar    1  UNL1        0.0000
   2473 C         -11.2588   17.1046   32.2841 C.ar    1  UNL1        0.0000
   2474 C          -0.5846   10.3814   34.1896 C.ar    1  UNL1        0.0000
   2475 C          -8.1757   25.0677   31.4097 C.3     1  UNL1        0.0000
   2476 C          -6.7844   24.1694   33.2006 C.2     1  UNL1        0.0000
   2477 C          -2.0022   11.2276   32.3615 C.ar    1  UNL1        0.0000
   2478 C           3.8394   17.7019   31.4306 C.ar    1  UNL1        0.0000
   2479 C         -12.5922   17.8684   34.1792 C.ar    1  UNL1        0.0000
   2480 C           2.0555   15.8635   26.2319 C.ar    1  UNL1        0.0000
   2481 C          -4.8205   27.4227   26.3092 C.2     1  UNL1        0.0000
   2482 C           0.0245   14.4706   39.2104 C.2     1  UNL1        0.0000
   2483 C         -13.3793   15.5470   39.2673 C.2     1  UNL1        0.0000
   2484 C          -3.3091   19.4997   31.8261 C.3     1  UNL1        0.0000
   2485 C          -7.8045   12.2418   33.7608 C.3     1  UNL1        0.0000
   2486 C          -2.4436   10.0736   39.3217 C.3     1  UNL1        0.0000
   2487 C          -4.8635   25.9868   26.2702 C.2     1  UNL1        0.0000
   2488 C          -1.2508   13.8089   39.2636 C.2     1  UNL1        0.0000
   2489 C         -11.9921   16.0099   39.2845 C.2     1  UNL1        0.0000
   2490 C           2.1250   15.1947   27.4604 C.ar    1  UNL1        0.0000
   2491 C          -9.1677   20.8905   38.1835 C.3    39  UNL39       0.0000
   2492 C         -11.0201   22.0058   27.3308 C.ar    1  UNL1        0.0000
   2493 C         -14.0109   15.2972   38.0424 C.2     1  UNL1        0.0000
   2494 C           0.7022   14.7648   37.9739 C.2     1  UNL1        0.0000
   2495 C          -9.7487   22.5302   27.3730 C.ar    1  UNL1        0.0000
   2496 C          -2.2216    7.8867   38.1312 C.2    20  UNL20       0.0000
   2497 C           2.1959   13.7956   27.5394 C.ar    1  UNL1        0.0000
   2498 N           2.2787   13.1976   28.7764 N.pl3   1  UNL1        0.0000
   2499 N           0.1229   14.5634   36.7380 N.pl3   1  UNL1        0.0000
   2500 N           1.3416   19.0326   33.8596 N.pl3   1  UNL1        0.0000
   2501 N          -0.2409   10.2332   35.5049 N.pl3   1  UNL1        0.0000
   2502 O           0.5750   19.2979   31.2971 O.3     1  UNL1        0.0000
   2503 O          -9.7135   15.6989   34.2406 O.3     1  UNL1        0.0000
   2504 O          -2.3143   11.8188   35.9163 O.3     1  UNL1        0.0000
   2505 O          -6.2335   24.1472   29.6432 O.3     1  UNL1        0.0000
   2506 O          -5.3406   22.7883   31.2227 O.3     1  UNL1        0.0000
   2507 O          -3.8828   12.0105   34.2986 O.3     1  UNL1        0.0000
   2508 O           2.1647   19.0309   29.7103 O.3     1  UNL1        0.0000
   2509 O         -10.5633   17.0550   35.8450 O.3     1  UNL1        0.0000
   2510 O          -0.5029   18.6843   28.7258 O.3     1  UNL1        0.0000
   2511 O          -8.0275   16.2690   36.3302 O.3     1  UNL1        0.0000
   2512 O           0.3582   21.0024   29.1737 O.3     1  UNL1        0.0000
   2513 O          -9.7158   14.4837   36.8302 O.3     1  UNL1        0.0000
   2514 O          -4.9999   11.4380   36.8949 O.3     1  UNL1        0.0000
   2515 O          -3.6901   23.3971   29.1298 O.3     1  UNL1        0.0000
   2516 O          -4.1279   13.7319   36.4286 O.3     1  UNL1        0.0000
   2517 O          -5.3371   21.5822   28.6194 O.3     1  UNL1        0.0000
   2518 O          -2.0845   19.3629   31.4649 O.3     1  UNL1        0.0000
   2519 O          -8.4957   13.2527   34.1441 O.3     1  UNL1        0.0000
   2520 O          -2.5932   10.6653   38.1826 O.3     1  UNL1        0.0000
   2521 O          -4.9160   25.2816   27.3649 O.2     1  UNL1        0.0000
   2522 O          -1.8886   13.4797   38.1769 O.2     1  UNL1        0.0000
   2523 O          -7.0870   23.3692   27.3147 O.3     1  UNL1        0.0000
   2524 O          -6.6306   11.9873   34.2117 O.3     1  UNL1        0.0000
   2525 O          -4.0853   20.3948   31.3382 O.3     1  UNL1        0.0000
   2526 O           2.5396   20.7279   27.3039 O.3     1  UNL1        0.0000
   2527 O         -11.4077   16.2642   38.1645 O.2     1  UNL1        0.0000
   2528 O           1.8406   17.9475   27.3338 O.3     1  UNL1        0.0000
   2529 O          -9.2025   18.1244   38.2357 O.3     1  UNL1        0.0000
   2530 O          -2.3904   21.0108   29.2402 O.3     1  UNL1        0.0000
   2531 O          -6.8066   13.8391   36.2375 O.3     1  UNL1        0.0000
   2532 O           0.0884   19.8754   26.2921 O.3     1  UNL1        0.0000
   2533 O          -8.8978   15.5775   39.2653 O.3     1  UNL1        0.0000
   2534 H          -5.7958   19.5023   32.8691 H       1  UNL1        0.0000
   2535 H          -6.7048   17.9456   34.6266 H       1  UNL1        0.0000
   2536 H          -5.2481   16.1868   35.5766 H       1  UNL1        0.0000
   2537 H          -2.0026   17.4794   33.0474 H       1  UNL1        0.0000
   2538 H          -2.9126   15.9279   34.8039 H       1  UNL1        0.0000
   2539 C          -4.8575   16.8554   34.8114 C.ar    1  UNL1        0.0000
   2540 C          -5.1767   18.7178   33.2993 C.ar    1  UNL1        0.0000
   2541 C          -3.0270   17.5732   33.4017 C.ar    1  UNL1        0.0000
   2542 C          -3.5344   16.7120   34.3751 C.ar    1  UNL1        0.0000
   2543 C          -5.6790   17.8539   34.2734 C.ar    1  UNL1        0.0000
   2544 C          -3.8459   18.5826   32.8601 C.ar    1  UNL1        0.0000
   2545 H          -0.9186   23.3446   30.0659 H      40  UNL40       0.0000
   2546 H          -2.2280   25.2859   30.8709 H      40  UNL40       0.0000
   2547 H           1.3395   22.8852   30.9651 H      40  UNL40       0.0000
   2548 H           5.7813   12.4470   32.5990 H       1  UNL1        0.0000
   2549 H         -13.6844   24.4180   32.6988 H      20  UNL20       0.0000
   2550 C           0.7817   23.7449   31.3332 C.2    40  UNL40       0.0000
   2551 C           6.3316   11.5806   32.2379 C.ar    1  UNL1        0.0000
   2552 C          -1.2356   25.1028   31.2792 C.2    40  UNL40       0.0000
   2553 C         -14.6784   24.5948   32.2939 C.2    20  UNL20       0.0000
   2554 C          -0.4982   24.0015   30.8257 C.2    40  UNL40       0.0000
   2555 C          -8.3896   11.3305   32.7488 C.ar    1  UNL1        0.0000
   2556 H          -2.2367   18.0237   36.7090 H      41  UNL41       0.0000
   2557 H          -1.4125   18.0980   38.2909 H      41  UNL41       0.0000
   2558 H          -1.1005   16.7403   37.1749 H      41  UNL41       0.0000
   2559 H          -4.8072   18.3231   36.8265 H      41  UNL41       0.0000
   2560 H          -6.5274   19.6607   38.5738 H      41  UNL41       0.0000
   2561 H          -3.4291   15.8920   37.4639 H      41  UNL41       0.0000
   2562 H          -2.6394   16.0274   39.0380 H      41  UNL41       0.0000
   2563 C          -5.7343   18.9465   38.7591 C.3    41  UNL41       0.0000
   2564 C          -2.9944   16.6054   38.1774 C.3    41  UNL41       0.0000
   2565 C          -4.8942   18.2856   37.9043 C.2    41  UNL41       0.0000
   2566 C          -1.8706   17.4268   37.5540 C.3    41  UNL41       0.0000
   2567 N          -4.0880   17.4669   38.6769 N.2    41  UNL41       0.0000
   2568 H          -1.0230   26.3762   28.9369 H      37  UNL37       0.0000
   2569 H          -2.3126   27.1343   27.9581 H      37  UNL37       0.0000
   2570 H          -2.4843   25.4339   28.4830 H      37  UNL37       0.0000
   2571 H           0.3481   24.3630   27.7026 H      37  UNL37       0.0000
   2572 C          -1.7743   26.2053   28.1606 C.3    37  UNL37       0.0000
   2573 C          -0.1091   24.8685   26.8604 C.3    37  UNL37       0.0000
   2574 N          -1.1074   25.7693   26.9294 N.pl3  37  UNL37       0.0000
   2575 TI         29.1504    2.1155   11.2652 Ti      1  UNL1        0.0000
   2576 TI         39.8215    5.3833    1.8444 Ti      1  UNL1        0.0000
   2577 TI         33.3714   -1.6735    9.4170 Ti      1  UNL1        0.0000
   2578 TI         34.5304    7.5426    3.6484 Ti      1  UNL1        0.0000
   2579 TI         33.4634    9.1874    1.7520 Ti      1  UNL1        0.0000
   2580 TI         35.2782   -1.8643   11.3595 Ti      1  UNL1        0.0000
   2581 TI         30.1489    0.4160    9.3660 Ti      1  UNL1        0.0000
   2582 TI         37.8347    5.6142    3.7033 Ti      1  UNL1        0.0000
   2583 H          29.5151    6.0280   11.0484 H       1  UNL1        0.0000
   2584 H          40.7675    1.5074    2.1552 H      24  UNL24       0.0000
   2585 H          25.2172    1.2219   10.9036 H       1  UNL1        0.0000
   2586 H          43.1329    7.5039    2.0291 H      42  UNL42       0.0000
   2587 H          36.3915   -5.8619   10.9625 H       1  UNL1        0.0000
   2588 H          29.4297    8.4562    2.0957 H      24  UNL24       0.0000
   2589 H          29.6915    0.3319   12.9842 H       1  UNL1        0.0000
   2590 H          37.9461    5.0775    0.1546 H       1  UNL1        0.0000
   2591 H          35.7802   -2.5066    5.8447 H       1  UNL1        0.0000
   2592 H          32.7644    9.3142    7.2795 H       1  UNL1        0.0000
   2593 H          25.9588    3.6612    9.0374 H       1  UNL1        0.0000
   2594 H          42.6600    3.3934    4.1322 H       1  UNL1        0.0000
   2595 H          28.2902    2.2987    5.6889 H       1  UNL1        0.0000
   2596 H          30.3148   10.9034    4.1249 H       1  UNL1        0.0000
   2597 H          33.7522   12.3010    2.6096 H       1  UNL1        0.0000
   2598 H          40.6868   -0.5172    3.3557 H      24  UNL24       0.0000
   2599 H          36.6254    7.2974    2.2978 H       1  UNL1        0.0000
   2600 H          32.2343    0.1346   10.7192 H       1  UNL1        0.0000
   2601 H          39.4340    0.2188    9.7284 H       1  UNL1        0.0000
   2602 H          37.9743   -0.3025   10.4833 H       1  UNL1        0.0000
   2603 H          39.8472    4.6710    8.6325 H       1  UNL1        0.0000
   2604 H          39.2564    5.0115    7.0176 H       1  UNL1        0.0000
   2605 H          39.1169   -4.7498    9.5342 H       1  UNL1        0.0000
   2606 H          37.8028   -3.6950   10.0002 H       1  UNL1        0.0000
   2607 C          40.4410    4.6592    4.7037 C.2     1  UNL1        0.0000
   2608 C          28.1655    2.3467    8.4239 C.3     1  UNL1        0.0000
   2609 C          35.9803   -2.5926    8.4766 C.3     1  UNL1        0.0000
   2610 C          32.5323    9.4434    4.6213 C.3     1  UNL1        0.0000
   2611 C          41.3631    4.0852    5.6930 C.2     1  UNL1        0.0000
   2612 C          27.2069    2.9401    7.4529 C.ar    1  UNL1        0.0000
   2613 C          36.9360   -3.1727    7.5233 C.2     1  UNL1        0.0000
   2614 C          31.6261   10.0576    5.6269 C.ar    1  UNL1        0.0000
   2615 C          41.1197    4.1498    7.1009 C.3     1  UNL1        0.0000
   2616 C          27.4196    2.8294    6.0635 C.ar    1  UNL1        0.0000
   2617 C          38.0938   -3.8938    7.9691 C.2     1  UNL1        0.0000
   2618 C          30.5027   10.7925    5.1891 C.ar    1  UNL1        0.0000
   2619 C          31.8940    9.8942    6.9801 C.ar    1  UNL1        0.0000
   2620 C          36.6761   -3.0476    6.1410 C.3     1  UNL1        0.0000
   2621 C          42.5177    3.4267    5.2100 C.3     1  UNL1        0.0000
   2622 C          26.0861    3.5932    7.9586 C.ar    1  UNL1        0.0000
   2623 C          40.7338    1.5883    0.0113 C.3    24  UNL24       0.0000
   2624 C          33.8578   13.1474    0.0887 C.2     1  UNL1        0.0000
   2625 C          38.7029    0.1954   12.9898 C.2     1  UNL1        0.0000
   2626 C          25.2990    1.2718   13.0467 C.ar    1  UNL1        0.0000
   2627 C          35.3692    5.2245    5.6056 C.3     1  UNL1        0.0000
   2628 C          30.8738   -2.0334    7.5402 C.2     1  UNL1        0.0000
   2629 C          36.2347   -4.2016   13.1012 C.2     1  UNL1        0.0000
   2630 C          33.8148   11.7116    0.0497 C.2     1  UNL1        0.0000
   2631 C          37.4276   -0.4663   13.0430 C.2     1  UNL1        0.0000
   2632 C          26.6862    1.7347   13.0640 C.3     1  UNL1        0.0000
   2633 C          40.8033    0.9195    1.2398 C.2    24  UNL24       0.0000
   2634 C          29.5107    6.6153   11.9630 C.ar    1  UNL1        0.0000
   2635 C          27.6582    7.7305    1.1102 C.2    24  UNL24       0.0000
   2636 C          24.6674    1.0220   11.8218 C.ar    1  UNL1        0.0000
   2637 C          39.3805    0.4896   11.7534 C.3     1  UNL1        0.0000
   2638 C          28.9296    8.2550    1.1525 C.2    24  UNL24       0.0000
   2639 C          36.4568   -6.3885   11.9106 C.3     1  UNL1        0.0000
   2640 C          40.8742   -0.4796    1.3189 C.2    24  UNL24       0.0000
   2641 N          40.9570   -1.0777    2.5559 N.pl3  24  UNL24       0.0000
   2642 N          38.8012    0.2882   10.5174 N.3     1  UNL1        0.0000
   2643 N          40.0200    4.7573    7.6391 N.3     1  UNL1        0.0000
   2644 N          38.4374   -4.0420    9.2844 N.pl3   1  UNL1        0.0000
   2645 O          39.2533    5.0226    5.0765 O.2     1  UNL1        0.0000
   2646 O          28.9648    1.4237    8.0200 O.3     1  UNL1        0.0000
   2647 O          36.3640   -2.4564    9.6957 O.3     1  UNL1        0.0000
   2648 O          32.4448    9.8719    3.4226 O.3     1  UNL1        0.0000
   2649 O          33.3378    8.5131    5.0021 O.3     1  UNL1        0.0000
   2650 O          34.7955   -2.2647    8.0781 O.3     1  UNL1        0.0000
   2651 O          40.8430    4.7557    3.4898 O.2     1  UNL1        0.0000
   2652 O          28.1150    2.7798    9.6244 O.3     1  UNL1        0.0000
   2653 O          38.1754    4.4091    2.5052 O.3     1  UNL1        0.0000
   2654 O          30.6508    1.9937   10.1096 O.3     1  UNL1        0.0000
   2655 O          39.0365    6.7272    2.9532 O.3     1  UNL1        0.0000
   2656 O          28.9625    0.2085   10.6096 O.3     1  UNL1        0.0000
   2657 O          33.6784   -2.8372   10.6743 O.3     1  UNL1        0.0000
   2658 O          34.9882    9.1219    2.9093 O.3     1  UNL1        0.0000
   2659 O          34.5504   -0.5433   10.2080 O.3     1  UNL1        0.0000
   2660 O          33.3413    7.3070    2.3989 O.3     1  UNL1        0.0000
   2661 O          36.5939    5.0877    5.2443 O.3     1  UNL1        0.0000
   2662 O          30.1826   -1.0225    7.9235 O.2     1  UNL1        0.0000
   2663 O          36.0852   -3.6099   11.9620 O.2     1  UNL1        0.0000
   2664 O          33.7623   11.0064    1.1444 O.2     1  UNL1        0.0000
   2665 O          36.7897   -0.7955   11.9563 O.2     1  UNL1        0.0000
   2666 O          31.5913    9.0940    1.0941 O.3     1  UNL1        0.0000
   2667 O          32.0477   -2.2879    7.9912 O.2     1  UNL1        0.0000
   2668 O          34.5930    6.1196    5.1176 O.3     1  UNL1        0.0000
   2669 O          41.2180    6.4527    1.0833 O.3     1  UNL1        0.0000
   2670 O          27.2706    1.9890   11.9440 O.3     1  UNL1        0.0000
   2671 O          40.5189    3.6723    1.1133 O.3     1  UNL1        0.0000
   2672 O          29.4758    3.8491   12.0151 O.3     1  UNL1        0.0000
   2673 O          36.2879    6.7356    3.0197 O.3     1  UNL1        0.0000
   2674 O          31.8718   -0.4361   10.0169 O.3     1  UNL1        0.0000
   2675 O          38.7667    5.6001    0.0716 O.3     1  UNL1        0.0000
   2676 O          29.7805    1.3023   13.0448 O.3     1  UNL1        0.0000
   2677 H          32.8826    5.2270    6.6485 H       1  UNL1        0.0000
   2678 H          31.9735    3.6704    8.4060 H       1  UNL1        0.0000
   2679 H          33.4302    1.9116    9.3560 H       1  UNL1        0.0000
   2680 H          36.6757    3.2042    6.8269 H       1  UNL1        0.0000
   2681 H          35.7657    1.6527    8.5834 H       1  UNL1        0.0000
   2682 C          33.8208    2.5801    8.5908 C.ar    1  UNL1        0.0000
   2683 C          33.5016    4.4426    7.0787 C.ar    1  UNL1        0.0000
   2684 C          35.6514    3.2980    7.1812 C.ar    1  UNL1        0.0000
   2685 C          35.1440    2.4368    8.1546 C.ar    1  UNL1        0.0000
   2686 C          32.9993    3.5787    8.0529 C.ar    1  UNL1        0.0000
   2687 C          34.8324    4.3074    6.6396 C.ar    1  UNL1        0.0000
   2688 H          37.7597    9.0694    3.8453 H      24  UNL24       0.0000
   2689 H          36.4503   11.0107    4.6503 H      24  UNL24       0.0000
   2690 H          40.0178    8.6100    4.7446 H      24  UNL24       0.0000
   2691 H          44.4597   -1.8282    6.3785 H      24  UNL24       0.0000
   2692 H          24.9940   10.1428    6.4782 H       1  UNL1        0.0000
   2693 C          39.4600    9.4696    5.1127 C.2    24  UNL24       0.0000
   2694 C          45.0099   -2.6946    6.0174 C.3    43  UNL43       0.0000
   2695 C          37.4428   10.8276    5.0587 C.2    24  UNL24       0.0000
   2696 C          24.0000   10.3196    6.0734 C.ar    1  UNL1        0.0000
   2697 C          38.1801    9.7262    4.6051 C.2    24  UNL24       0.0000
   2698 C          30.2887   -2.9447    6.5282 C.2     1  UNL1        0.0000
   2699 H          36.4416    3.7484   10.4885 H      24  UNL24       0.0000
   2700 H          37.2659    3.8228   12.0704 H      24  UNL24       0.0000
   2701 H          37.5779    2.4651   10.9544 H      24  UNL24       0.0000
   2702 H          33.8712    4.0479   10.6060 H      24  UNL24       0.0000
   2703 H          32.1509    5.3855   12.3532 H      24  UNL24       0.0000
   2704 H          35.2492    1.6168   11.2434 H      24  UNL24       0.0000
   2705 H          36.0390    1.7522   12.8174 H      24  UNL24       0.0000
   2706 C          32.9440    4.6713   12.5385 C.2    24  UNL24       0.0000
   2707 C          35.6839    2.3302   11.9568 C.3    24  UNL24       0.0000
   2708 C          33.7841    4.0104   11.6838 C.2    24  UNL24       0.0000
   2709 C          36.8077    3.1516   11.3334 C.3    24  UNL24       0.0000
   2710 N          34.5903    3.1917   12.4564 N.pl3  24  UNL24       0.0000
   2711 H          37.6553   12.1009    2.7163 H      24  UNL24       0.0000
   2712 H          36.3657   12.8590    1.7375 H      24  UNL24       0.0000
   2713 H          36.1941   11.1587    2.2624 H      24  UNL24       0.0000
   2714 H          39.0264   10.0878    1.4820 H      24  UNL24       0.0000
   2715 C          36.9040   11.9301    1.9401 C.3    24  UNL24       0.0000
   2716 C          38.5692   10.5933    0.6399 C.2    24  UNL24       0.0000
   2717 N          37.5709   11.4941    0.7089 N.2    24  UNL24       0.0000
   2718 TI         24.8379   -5.1237   24.3754 Ti      1  UNL1        0.0000
   2719 TI         35.5090   -1.8559   14.9547 Ti      1  UNL1        0.0000
   2720 TI         29.0589   -8.9127   22.5273 Ti      1  UNL1        0.0000
   2721 TI         30.2179    0.3034   16.7587 Ti      1  UNL1        0.0000
   2722 TI         29.1509    1.9482   14.8622 Ti      1  UNL1        0.0000
   2723 TI         30.9657   -9.1035   24.4698 Ti      1  UNL1        0.0000
   2724 TI         25.8363   -6.8232   22.4763 Ti      1  UNL1        0.0000
   2725 TI         33.5222   -1.6250   16.8136 Ti      1  UNL1        0.0000
   2726 H          25.2026   -1.2112   24.1586 H       1  UNL1        0.0000
   2727 H          36.4550   -5.7318   15.2654 H       1  UNL1        0.0000
   2728 H          20.9046   -6.0173   24.0139 H       1  UNL1        0.0000
   2729 H          38.8204    0.2647   15.1394 H      44  UNL44       0.0000
   2730 H          32.0790  -13.1011   24.0728 H       1  UNL1        0.0000
   2731 H          25.1172    1.2170   15.2060 H       1  UNL1        0.0000
   2732 H          25.3790   -6.9073   26.0944 H       1  UNL1        0.0000
   2733 H          33.6335   -2.1617   13.2649 H       1  UNL1        0.0000
   2734 H          31.4677   -9.7458   18.9550 H       1  UNL1        0.0000
   2735 H          28.4518    2.0750   20.3897 H       1  UNL1        0.0000
   2736 H          21.6463   -3.5780   22.1477 H       1  UNL1        0.0000
   2737 H          38.3474   -3.8458   17.2425 H       1  UNL1        0.0000
   2738 H          23.9777   -4.9405   18.7991 H       1  UNL1        0.0000
   2739 H          26.0023    3.6642   17.2352 H       1  UNL1        0.0000
   2740 H          29.4396    5.0618   15.7198 H       1  UNL1        0.0000
   2741 H          36.3743   -7.7564   16.4660 H       1  UNL1        0.0000
   2742 H          32.3129    0.0582   15.4080 H       1  UNL1        0.0000
   2743 H          27.9217   -7.1046   23.8294 H       1  UNL1        0.0000
   2744 H          35.1214   -7.0204   22.8387 H       1  UNL1        0.0000
   2745 H          33.6617   -7.5417   23.5936 H       1  UNL1        0.0000
   2746 H          35.5347   -2.5682   21.7428 H       1  UNL1        0.0000
   2747 H          34.9438   -2.2277   20.1279 H       1  UNL1        0.0000
   2748 H          34.8043  -11.9890   22.6444 H       1  UNL1        0.0000
   2749 H          33.4902  -10.9342   23.1105 H       1  UNL1        0.0000
   2750 C          36.1284   -2.5800   17.8139 C.2     1  UNL1        0.0000
   2751 C          23.8529   -4.8925   21.5341 C.3     1  UNL1        0.0000
   2752 C          31.6678   -9.8318   21.5868 C.3     1  UNL1        0.0000
   2753 C          28.2198    2.2042   17.7315 C.3     1  UNL1        0.0000
   2754 C          37.0505   -3.1540   18.8033 C.2     1  UNL1        0.0000
   2755 C          22.8944   -4.2991   20.5632 C.ar    1  UNL1        0.0000
   2756 C          32.6235  -10.4119   20.6336 C.2     1  UNL1        0.0000
   2757 C          27.3136    2.8184   18.7372 C.ar    1  UNL1        0.0000
   2758 C          36.8072   -3.0894   20.2112 C.3     1  UNL1        0.0000
   2759 C          23.1070   -4.4098   19.1738 C.ar    1  UNL1        0.0000
   2760 C          33.7812  -11.1330   21.0793 C.2     1  UNL1        0.0000
   2761 C          26.1901    3.5533   18.2994 C.ar    1  UNL1        0.0000
   2762 C          27.5814    2.6550   20.0904 C.ar    1  UNL1        0.0000
   2763 C          32.3636  -10.2868   19.2512 C.3     1  UNL1        0.0000
   2764 C          38.2052   -3.8125   18.3203 C.3     1  UNL1        0.0000
   2765 C          21.7736   -3.6460   21.0689 C.ar    1  UNL1        0.0000
   2766 C          36.4213   -5.6509   13.1216 C.2     1  UNL1        0.0000
   2767 C          29.5453    5.9082   13.1989 C.ar    1  UNL1        0.0000
   2768 C          34.3903   -7.0438   26.1001 C.2     1  UNL1        0.0000
   2769 C          20.9865   -5.9674   26.1570 C.ar    1  UNL1        0.0000
   2770 C          31.0567   -2.0147   18.7159 C.3     1  UNL1        0.0000
   2771 C          26.5613   -9.2726   20.6505 C.2     1  UNL1        0.0000
   2772 C          31.9222  -11.4408   26.2114 C.2     1  UNL1        0.0000
   2773 C          29.5023    4.4724   13.1600 C.3     1  UNL1        0.0000
   2774 C          33.1150   -7.7055   26.1533 C.2     1  UNL1        0.0000
   2775 C          22.3736   -5.5045   26.1743 C.3     1  UNL1        0.0000
   2776 C          36.4908   -6.3197   14.3501 C.2     1  UNL1        0.0000
   2777 C          25.1981   -0.6239   25.0733 C.ar    1  UNL1        0.0000
   2778 C          23.3457    0.4913   14.2205 C.ar    1  UNL1        0.0000
   2779 C          20.3549   -6.2172   24.9321 C.ar    1  UNL1        0.0000
   2780 C          35.0679   -6.7496   24.8637 C.3     1  UNL1        0.0000
   2781 C          24.6171    1.0158   14.2627 C.ar    1  UNL1        0.0000
   2782 C          32.1442  -13.6277   25.0209 C.3     1  UNL1        0.0000
   2783 C          36.5617   -7.7188   14.4292 C.2     1  UNL1        0.0000
   2784 N          36.6445   -8.3169   15.6662 N.pl3   1  UNL1        0.0000
   2785 N          34.4887   -6.9510   23.6277 N.3     1  UNL1        0.0000
   2786 N          35.7074   -2.4819   20.7494 N.3     1  UNL1        0.0000
   2787 N          34.1249  -11.2812   22.3946 N.pl3   1  UNL1        0.0000
   2788 O          34.9408   -2.2166   18.1868 O.2     1  UNL1        0.0000
   2789 O          24.6523   -5.8155   21.1303 O.3     1  UNL1        0.0000
   2790 O          32.0515   -9.6956   22.8060 O.3     1  UNL1        0.0000
   2791 O          28.1323    2.6327   16.5329 O.3     1  UNL1        0.0000
   2792 O          29.0252    1.2739   18.1124 O.3     1  UNL1        0.0000
   2793 O          30.4830   -9.5039   21.1883 O.3     1  UNL1        0.0000
   2794 O          36.5305   -2.4835   16.6000 O.2     1  UNL1        0.0000
   2795 O          23.8025   -4.4594   22.7347 O.3     1  UNL1        0.0000
   2796 O          33.8629   -2.8301   15.6155 O.3     1  UNL1        0.0000
   2797 O          26.3383   -5.2455   23.2199 O.3     1  UNL1        0.0000
   2798 O          34.7240   -0.5120   16.0635 O.3     1  UNL1        0.0000
   2799 O          24.6500   -7.0307   23.7199 O.3     1  UNL1        0.0000
   2800 O          29.3659  -10.0764   23.7846 O.3     1  UNL1        0.0000
   2801 O          30.6756    1.8827   16.0195 O.3     1  UNL1        0.0000
   2802 O          30.2379   -7.7825   23.3183 O.3     1  UNL1        0.0000
   2803 O          29.0287    0.0678   15.5092 O.3     1  UNL1        0.0000
   2804 O          32.2813   -2.1515   18.3546 O.3     1  UNL1        0.0000
   2805 O          25.8701   -8.2617   21.0338 O.2     1  UNL1        0.0000
   2806 O          31.7726  -10.8492   25.0723 O.2     1  UNL1        0.0000
   2807 O          29.4497    3.7672   14.2546 O.3     1  UNL1        0.0000
   2808 O          32.4772   -8.0347   25.0666 O.2     1  UNL1        0.0000
   2809 O          27.2788    1.8548   14.2044 O.3     1  UNL1        0.0000
   2810 O          27.7352   -9.5271   21.1014 O.2     1  UNL1        0.0000
   2811 O          30.2805   -1.1196   18.2279 O.3     1  UNL1        0.0000
   2812 O          36.9054   -0.7865   14.1936 O.2     1  UNL1        0.0000
   2813 O          22.9581   -5.2502   25.0543 O.3     1  UNL1        0.0000
   2814 O          36.2064   -3.5669   14.2236 O.2     1  UNL1        0.0000
   2815 O          25.1633   -3.3901   25.1254 O.3     1  UNL1        0.0000
   2816 O          31.9754   -0.5036   16.1299 O.3     1  UNL1        0.0000
   2817 O          27.5592   -7.6753   23.1272 O.3     1  UNL1        0.0000
   2818 O          34.4542   -1.6391   13.1819 O.3     1  UNL1        0.0000
   2819 O          25.4680   -5.9369   26.1551 O.3     1  UNL1        0.0000
   2820 H          28.5700   -2.0122   19.7588 H       1  UNL1        0.0000
   2821 H          27.6610   -3.5688   21.5163 H       1  UNL1        0.0000
   2822 H          29.1177   -5.3276   22.4663 H       1  UNL1        0.0000
   2823 H          32.3632   -4.0350   19.9372 H       1  UNL1        0.0000
   2824 H          31.4532   -5.5865   21.6937 H       1  UNL1        0.0000
   2825 C          29.5083   -4.6591   21.7011 C.ar    1  UNL1        0.0000
   2826 C          29.1891   -2.7966   20.1890 C.ar    1  UNL1        0.0000
   2827 C          31.3388   -3.9412   20.2915 C.ar    1  UNL1        0.0000
   2828 C          30.8314   -4.8024   21.2649 C.ar    1  UNL1        0.0000
   2829 C          28.6868   -3.6605   21.1632 C.ar    1  UNL1        0.0000
   2830 C          30.5199   -2.9318   19.7498 C.ar    1  UNL1        0.0000
   2831 H          33.4472    1.8302   16.9556 H      24  UNL24       0.0000
   2832 H          32.1378    3.7715   17.7606 H      24  UNL24       0.0000
   2833 H          35.7053    1.3708   17.8549 H      24  UNL24       0.0000
   2834 H          40.1471   -9.0674   19.4887 H      24  UNL24       0.0000
   2835 H          20.6814    2.9036   19.5885 H       1  UNL1        0.0000
   2836 C          35.1475    2.2304   18.2230 C.2    24  UNL24       0.0000
   2837 C          40.6974   -9.9338   19.1277 C.3    45  UNL45       0.0000
   2838 C          33.1302    3.5884   18.1689 C.2    24  UNL24       0.0000
   2839 C          19.6874    3.0804   19.1837 C.ar    1  UNL1        0.0000
   2840 C          33.8676    2.4870   17.7154 C.2    24  UNL24       0.0000
   2841 C          25.9762  -10.1839   19.6385 C.2     1  UNL1        0.0000
   2842 H          32.1291   -3.4908   23.5988 H      24  UNL24       0.0000
   2843 H          32.9533   -3.4164   25.1807 H      24  UNL24       0.0000
   2844 H          33.2653   -4.7741   24.0647 H      24  UNL24       0.0000
   2845 H          29.5586   -3.1913   23.7162 H      24  UNL24       0.0000
   2846 H          27.8384   -1.8537   25.4635 H      24  UNL24       0.0000
   2847 H          30.9367   -5.6224   24.3536 H      24  UNL24       0.0000
   2848 H          31.7264   -5.4870   25.9277 H      24  UNL24       0.0000
   2849 C          28.6315   -2.5679   25.6488 C.2    24  UNL24       0.0000
   2850 C          31.3714   -4.9090   25.0671 C.3    24  UNL24       0.0000
   2851 C          29.4716   -3.2288   24.7940 C.2    24  UNL24       0.0000
   2852 C          32.4952   -4.0876   24.4437 C.3    24  UNL24       0.0000
   2853 N          30.2778   -4.0475   25.5666 N.pl3  24  UNL24       0.0000
   2854 H          33.3427    4.8617   15.8266 H      24  UNL24       0.0000
   2855 H          32.0532    5.6198   14.8478 H      24  UNL24       0.0000
   2856 H          31.8815    3.9195   15.3727 H      24  UNL24       0.0000
   2857 H          34.7139    2.8486   14.5923 H      24  UNL24       0.0000
   2858 C          32.5915    4.6909   15.0504 C.3    24  UNL24       0.0000
   2859 C          34.2567    3.3541   13.7501 C.3    24  UNL24       0.0000
   2860 N          33.2584    4.2549   13.8192 N.pl3  24  UNL24       0.0000
   2861 TI         20.5254  -12.3629   37.4857 Ti      1  UNL1        0.0000
   2862 TI         31.1964   -9.0951   28.0650 Ti      1  UNL1        0.0000
   2863 TI         24.7463  -16.1519   35.6375 Ti      1  UNL1        0.0000
   2864 TI         25.9054   -6.9358   29.8690 Ti      1  UNL1        0.0000
   2865 TI         24.8383   -5.2910   27.9725 Ti      1  UNL1        0.0000
   2866 TI         26.6532  -16.3427   37.5800 Ti      1  UNL1        0.0000
   2867 TI         21.5238  -14.0624   35.5866 Ti      1  UNL1        0.0000
   2868 TI         29.2096   -8.8642   29.9238 Ti      1  UNL1        0.0000
   2869 H          20.8900   -8.4504   37.2689 H      24  UNL24       0.0000
   2870 H          32.1425  -12.9710   28.3757 H       1  UNL1        0.0000
   2871 H          16.5921  -13.2565   37.1242 H       1  UNL1        0.0000
   2872 H          34.5078   -6.9745   28.2496 H      46  UNL46       0.0000
   2873 H          27.7664  -20.3403   37.1831 H      24  UNL24       0.0000
   2874 H          20.8047   -6.0222   28.3163 H       1  UNL1        0.0000
   2875 H          21.0665  -14.1465   39.2047 H       1  UNL1        0.0000
   2876 H          29.3210   -9.4009   26.3751 H       1  UNL1        0.0000
   2877 H          27.1551  -16.9850   32.0653 H       1  UNL1        0.0000
   2878 H          24.1393   -5.1642   33.5000 H       1  UNL1        0.0000
   2879 H          17.3338  -10.8172   35.2580 H       1  UNL1        0.0000
   2880 H          34.0349  -11.0850   30.3527 H       1  UNL1        0.0000
   2881 H          19.6652  -12.1797   31.9094 H       1  UNL1        0.0000
   2882 H          21.6897   -3.5750   30.3455 H       1  UNL1        0.0000
   2883 H          25.1271   -2.1774   28.8301 H       1  UNL1        0.0000
   2884 H          32.0617  -14.9956   29.5763 H       1  UNL1        0.0000
   2885 H          28.0003   -7.1810   28.5183 H       1  UNL1        0.0000
   2886 H          23.6092  -14.3438   36.9397 H       1  UNL1        0.0000
   2887 H          30.8089  -14.2596   35.9489 H       1  UNL1        0.0000
   2888 H          29.3492  -14.7809   36.7038 H       1  UNL1        0.0000
   2889 H          31.2222   -9.8074   34.8530 H       1  UNL1        0.0000
   2890 H          30.6313   -9.4669   33.2382 H       1  UNL1        0.0000
   2891 H          30.4918  -19.2282   35.7547 H       1  UNL1        0.0000
   2892 H          29.1777  -18.1734   36.2207 H       1  UNL1        0.0000
   2893 C          31.8159   -9.8192   30.9242 C.2     1  UNL1        0.0000
   2894 C          19.5404  -12.1317   34.6444 C.3     1  UNL1        0.0000
   2895 C          27.3552  -17.0710   34.6971 C.3     1  UNL1        0.0000
   2896 C          23.9072   -5.0350   30.8418 C.3     1  UNL1        0.0000
   2897 C          32.7380  -10.3932   31.9136 C.2     1  UNL1        0.0000
   2898 C          18.5818  -11.5383   33.6734 C.ar    1  UNL1        0.0000
   2899 C          28.3109  -17.6511   33.7439 C.2     1  UNL1        0.0000
   2900 C          23.0010   -4.4208   31.8474 C.ar    1  UNL1        0.0000
   2901 C          32.4946  -10.3286   33.3215 C.3     1  UNL1        0.0000
   2902 C          18.7945  -11.6490   32.2841 C.ar    1  UNL1        0.0000
   2903 C          29.4687  -18.3722   34.1896 C.2     1  UNL1        0.0000
   2904 C          21.8776   -3.6859   31.4097 C.ar    1  UNL1        0.0000
   2905 C          23.2689   -4.5842   33.2006 C.ar    1  UNL1        0.0000
   2906 C          28.0510  -17.5261   32.3615 C.3     1  UNL1        0.0000
   2907 C          33.8926  -11.0517   31.4306 C.3     1  UNL1        0.0000
   2908 C          17.4611  -10.8852   34.1792 C.ar    1  UNL1        0.0000
   2909 C          32.1088  -12.8901   26.2319 C.2     1  UNL1        0.0000
   2910 C          25.2327   -1.3310   26.3092 C.ar    1  UNL1        0.0000
   2911 C          30.0778  -14.2830   39.2104 C.2     1  UNL1        0.0000
   2912 C          16.6740  -13.2066   39.2673 C.2     1  UNL1        0.0000
   2913 C          26.7442   -9.2539   31.8261 C.3     1  UNL1        0.0000
   2914 C          22.2487  -16.5118   33.7608 C.2     1  UNL1        0.0000
   2915 C          27.6097  -18.6800   39.3217 C.3     1  UNL1        0.0000
   2916 C          25.1897   -2.7668   26.2702 C.3     1  UNL1        0.0000
   2917 C          28.8025  -14.9447   39.2636 C.2     1  UNL1        0.0000
   2918 C          18.0611  -12.7437   39.2845 C.2     1  UNL1        0.0000
   2919 C          32.1782  -13.5589   27.4604 C.2     1  UNL1        0.0000
   2920 C          20.8856   -7.8631   38.1835 C.2    24  UNL24       0.0000
   2921 C          19.0332   -6.7479   27.3308 C.ar    1  UNL1        0.0000
   2922 C          16.0424  -13.4564   38.0424 C.2     1  UNL1        0.0000
   2923 C          30.7554  -13.9888   37.9739 C.3     1  UNL1        0.0000
   2924 C          20.3045   -6.2234   27.3730 C.ar    1  UNL1        0.0000
   2925 C          27.8317  -20.8669   38.1312 C.3    47  UNL47       0.0000
   2926 C          32.2492  -14.9580   27.5394 C.2     1  UNL1        0.0000
   2927 N          32.3320  -15.5561   28.7764 N.pl3   1  UNL1        0.0000
   2928 N          30.1762  -14.1902   36.7380 N.3     1  UNL1        0.0000
   2929 N          31.3949   -9.7211   33.8596 N.3     1  UNL1        0.0000
   2930 N          29.8124  -18.5204   35.5049 N.pl3   1  UNL1        0.0000
   2931 O          30.6283   -9.4558   31.2971 O.2     1  UNL1        0.0000
   2932 O          20.3398  -13.0547   34.2406 O.3     1  UNL1        0.0000
   2933 O          27.7390  -16.9348   35.9163 O.3     1  UNL1        0.0000
   2934 O          23.8197   -4.6065   29.6432 O.3     1  UNL1        0.0000
   2935 O          24.7127   -5.9653   31.2227 O.3     1  UNL1        0.0000
   2936 O          26.1705  -16.7431   34.2986 O.3     1  UNL1        0.0000
   2937 O          32.2179   -9.7227   29.7103 O.2     1  UNL1        0.0000
   2938 O          19.4899  -11.6986   35.8450 O.3     1  UNL1        0.0000
   2939 O          29.5504  -10.0693   28.7258 O.3     1  UNL1        0.0000
   2940 O          22.0258  -12.4847   36.3302 O.3     1  UNL1        0.0000
   2941 O          30.4115   -7.7512   29.1737 O.3     1  UNL1        0.0000
   2942 O          20.3375  -14.2699   36.8302 O.3     1  UNL1        0.0000
   2943 O          25.0533  -17.3156   36.8949 O.3     1  UNL1        0.0000
   2944 O          26.3631   -5.3565   29.1298 O.3     1  UNL1        0.0000
   2945 O          25.9254  -15.0217   36.4286 O.3     1  UNL1        0.0000
   2946 O          24.7162   -7.1714   28.6194 O.3     1  UNL1        0.0000
   2947 O          27.9688   -9.3907   31.4649 O.3     1  UNL1        0.0000
   2948 O          21.5576  -15.5009   34.1441 O.2     1  UNL1        0.0000
   2949 O          27.4601  -18.0884   38.1826 O.3     1  UNL1        0.0000
   2950 O          25.1372   -3.4720   27.3649 O.3     1  UNL1        0.0000
   2951 O          28.1646  -15.2739   38.1769 O.2     1  UNL1        0.0000
   2952 O          22.9662   -5.3844   27.3147 O.3     1  UNL1        0.0000
   2953 O          23.4226  -16.7663   34.2117 O.2     1  UNL1        0.0000
   2954 O          25.9680   -8.3588   31.3382 O.3     1  UNL1        0.0000
   2955 O          32.5929   -8.0257   27.3039 O.2     1  UNL1        0.0000
   2956 O          18.6456  -12.4894   38.1645 O.2     1  UNL1        0.0000
   2957 O          31.8939  -10.8061   27.3338 O.2     1  UNL1        0.0000
   2958 O          20.8508  -10.6293   38.2357 O.3     1  UNL1        0.0000
   2959 O          27.6629   -7.7428   29.2402 O.3     1  UNL1        0.0000
   2960 O          23.2467  -14.9145   36.2375 O.3     1  UNL1        0.0000
   2961 O          30.1417   -8.8783   26.2921 O.3     1  UNL1        0.0000
   2962 O          21.1554  -13.1761   39.2653 O.3     1  UNL1        0.0000
   2963 H          24.2575   -9.2514   32.8691 H       1  UNL1        0.0000
   2964 H          23.3484  -10.8080   34.6266 H       1  UNL1        0.0000
   2965 H          24.8052  -12.5668   35.5766 H       1  UNL1        0.0000
   2966 H          28.0506  -11.2742   33.0474 H       1  UNL1        0.0000
   2967 H          27.1406  -12.8257   34.8039 H       1  UNL1        0.0000
   2968 C          25.1958  -11.8983   34.8114 C.ar    1  UNL1        0.0000
   2969 C          24.8765  -10.0358   33.2993 C.ar    1  UNL1        0.0000
   2970 C          27.0263  -11.1804   33.4017 C.ar    1  UNL1        0.0000
   2971 C          26.5189  -12.0416   34.3751 C.ar    1  UNL1        0.0000
   2972 C          24.3743  -10.8997   34.2734 C.ar    1  UNL1        0.0000
   2973 C          26.2073  -10.1710   32.8601 C.ar    1  UNL1        0.0000
   2974 H          29.1346   -5.4090   30.0659 H      24  UNL24       0.0000
   2975 H          27.8252   -3.4677   30.8709 H      24  UNL24       0.0000
   2976 H          31.3927   -5.8684   30.9651 H      24  UNL24       0.0000
   2977 H          35.8346  -16.3066   32.5990 H      24  UNL24       0.0000
   2978 H          16.3689   -4.3356   32.6988 H       1  UNL1        0.0000
   2979 C          30.8350   -5.0088   31.3332 C.2    24  UNL24       0.0000
   2980 C          36.3848  -17.1730   32.2379 C.3    48  UNL48       0.0000
   2981 C          28.8177   -3.6508   31.2792 C.2    24  UNL24       0.0000
   2982 C          15.3749   -4.1588   32.2939 C.ar    1  UNL1        0.0000
   2983 C          29.5550   -4.7522   30.8257 C.2    24  UNL24       0.0000
   2984 C          21.6636  -17.4231   32.7488 C.2     1  UNL1        0.0000
   2985 H          27.8166  -10.7300   36.7090 H      24  UNL24       0.0000
   2986 H          28.6408  -10.6556   38.2909 H      24  UNL24       0.0000
   2987 H          28.9528  -12.0133   37.1749 H      24  UNL24       0.0000
   2988 H          25.2461  -10.4305   36.8265 H      24  UNL24       0.0000
   2989 H          23.5259   -9.0929   38.5738 H      24  UNL24       0.0000
   2990 H          26.6242  -12.8616   37.4639 H      24  UNL24       0.0000
   2991 H          27.4139  -12.7262   39.0380 H      24  UNL24       0.0000
   2992 C          24.3189   -9.8071   38.7591 C.2    24  UNL24       0.0000
   2993 C          27.0589  -12.1483   38.1774 C.3    24  UNL24       0.0000
   2994 C          25.1591  -10.4680   37.9043 C.2    24  UNL24       0.0000
   2995 C          28.1826  -11.3268   37.5540 C.3    24  UNL24       0.0000
   2996 N          25.9652  -11.2867   38.6769 N.pl3  24  UNL24       0.0000
   2997 H          29.0302   -2.3775   28.9369 H      24  UNL24       0.0000
   2998 H          27.7406   -1.6194   27.9581 H      24  UNL24       0.0000
   2999 H          27.5690   -3.3198   28.4830 H      24  UNL24       0.0000
   3000 H          30.4014   -4.3906   27.7026 H      24  UNL24       0.0000
   3001 C          28.2789   -2.5483   28.1606 C.3    24  UNL24       0.0000
   3002 C          29.9441   -3.8852   26.8604 C.3    24  UNL24       0.0000
   3003 N          28.9459   -2.9843   26.9294 N.pl3  24  UNL24       0.0000
   3004 TI         22.1285   16.4923   11.2652 Ti      1  UNL1        0.0000
   3005 TI         32.7995   19.7601    1.8444 Ti      1  UNL1        0.0000
   3006 TI         26.3495   12.7033    9.4170 Ti      1  UNL1        0.0000
   3007 TI         27.5085   21.9194    3.6484 Ti      1  UNL1        0.0000
   3008 TI         26.4415   23.5642    1.7520 Ti      1  UNL1        0.0000
   3009 TI         28.2563   12.5125   11.3595 Ti      1  UNL1        0.0000
   3010 TI         23.1269   14.7928    9.3660 Ti      1  UNL1        0.0000
   3011 TI         30.8128   19.9910    3.7033 Ti      1  UNL1        0.0000
   3012 H          22.4932   20.4048   11.0484 H       1  UNL1        0.0000
   3013 H          33.7456   15.8842    2.1552 H       1  UNL1        0.0000
   3014 H          18.1952   15.5988   10.9036 H       1  UNL1        0.0000
   3015 H          36.1110   21.8807    2.0291 H      49  UNL49       0.0000
   3016 H          29.3695    8.5149   10.9625 H       1  UNL1        0.0000
   3017 H          22.4078   22.8330    2.0957 H      24  UNL24       0.0000
   3018 H          22.6696   14.7087   12.9842 H       1  UNL1        0.0000
   3019 H          30.9241   19.4543    0.1546 H       1  UNL1        0.0000
   3020 H          28.7583   11.8702    5.8447 H       1  UNL1        0.0000
   3021 H          25.7424   23.6910    7.2795 H       1  UNL1        0.0000
   3022 H          18.9369   18.0380    9.0374 H       1  UNL1        0.0000
   3023 H          35.6380   17.7702    4.1322 H       1  UNL1        0.0000
   3024 H          21.2683   16.6756    5.6889 H       1  UNL1        0.0000
   3025 H          23.2929   25.2802    4.1249 H       1  UNL1        0.0000
   3026 H          26.7302   26.6778    2.6096 H       1  UNL1        0.0000
   3027 H          33.6649   13.8596    3.3557 H       1  UNL1        0.0000
   3028 H          29.6035   21.6742    2.2978 H       1  UNL1        0.0000
   3029 H          25.2123   14.5114   10.7192 H       1  UNL1        0.0000
   3030 H          32.4120   14.5956    9.7284 H       1  UNL1        0.0000
   3031 H          30.9523   14.0743   10.4833 H       1  UNL1        0.0000
   3032 H          32.8253   19.0478    8.6325 H       1  UNL1        0.0000
   3033 H          32.2344   19.3883    7.0176 H       1  UNL1        0.0000
   3034 H          32.0949    9.6270    9.5342 H       1  UNL1        0.0000
   3035 H          30.7808   10.6818   10.0002 H       1  UNL1        0.0000
   3036 C          33.4190   19.0360    4.7037 C.2     1  UNL1        0.0000
   3037 C          21.1435   16.7235    8.4239 C.3     1  UNL1        0.0000
   3038 C          28.9584   11.7842    8.4766 C.3     1  UNL1        0.0000
   3039 C          25.5104   23.8202    4.6213 C.3     1  UNL1        0.0000
   3040 C          34.3411   18.4620    5.6930 C.2     1  UNL1        0.0000
   3041 C          20.1850   17.3169    7.4529 C.ar    1  UNL1        0.0000
   3042 C          29.9141   11.2041    7.5233 C.ar    1  UNL1        0.0000
   3043 C          24.6042   24.4344    5.6269 C.ar    1  UNL1        0.0000
   3044 C          34.0978   18.5266    7.1009 C.3     1  UNL1        0.0000
   3045 C          20.3976   17.2062    6.0635 C.ar    1  UNL1        0.0000
   3046 C          31.0718   10.4830    7.9691 C.ar    1  UNL1        0.0000
   3047 C          23.4807   25.1693    5.1891 C.ar    1  UNL1        0.0000
   3048 C          24.8720   24.2710    6.9801 C.ar    1  UNL1        0.0000
   3049 C          29.6542   11.3292    6.1410 C.ar    1  UNL1        0.0000
   3050 C          35.4958   17.8035    5.2100 C.3     1  UNL1        0.0000
   3051 C          19.0642   17.9700    7.9586 C.ar    1  UNL1        0.0000
   3052 C          33.7119   15.9651    0.0113 C.3     1  UNL1        0.0000
   3053 C          26.8359   27.5243    0.0887 C.2     1  UNL1        0.0000
   3054 C          31.6809   14.5722   12.9898 C.2     1  UNL1        0.0000
   3055 C          18.2771   15.6486   13.0467 C.ar    1  UNL1        0.0000
   3056 C          28.3473   19.6013    5.6056 C.3     1  UNL1        0.0000
   3057 C          23.8518   12.3434    7.5402 C.3     1  UNL1        0.0000
   3058 C          29.2128   10.1752   13.1012 C.3     1  UNL1        0.0000
   3059 C          26.7928   26.0884    0.0497 C.2     1  UNL1        0.0000
   3060 C          30.4056   13.9105   13.0430 C.2     1  UNL1        0.0000
   3061 C          19.6642   16.1115   13.0640 C.3     1  UNL1        0.0000
   3062 C          33.7814   15.2963    1.2398 C.2     1  UNL1        0.0000
   3063 C          22.4887   20.9921   11.9630 C.ar    1  UNL1        0.0000
   3064 C          20.6363   22.1073    1.1102 C.2    24  UNL24       0.0000
   3065 C          17.6455   15.3988   11.8218 C.ar    1  UNL1        0.0000
   3066 C          32.3585   14.8664   11.7534 C.3     1  UNL1        0.0000
   3067 C          21.9077   22.6318    1.1525 C.2    24  UNL24       0.0000
   3068 C          29.4348    7.9883   11.9106 C.ar    1  UNL1        0.0000
   3069 C          33.8523   13.8972    1.3189 C.2     1  UNL1        0.0000
   3070 N          33.9351   13.2992    2.5559 N.pl3   1  UNL1        0.0000
   3071 N          31.7793   14.6650   10.5174 N.3     1  UNL1        0.0000
   3072 N          32.9980   19.1342    7.6391 N.3     1  UNL1        0.0000
   3073 N          31.4155   10.3348    9.2844 N.pl3   1  UNL1        0.0000
   3074 O          32.2314   19.3994    5.0765 O.2     1  UNL1        0.0000
   3075 O          21.9429   15.8005    8.0200 O.3     1  UNL1        0.0000
   3076 O          29.3421   11.9204    9.6957 O.3     1  UNL1        0.0000
   3077 O          25.4229   24.2487    3.4226 O.3     1  UNL1        0.0000
   3078 O          26.3158   22.8899    5.0021 O.3     1  UNL1        0.0000
   3079 O          27.7736   12.1121    8.0781 O.3     1  UNL1        0.0000
   3080 O          33.8211   19.1325    3.4898 O.2     1  UNL1        0.0000
   3081 O          21.0931   17.1566    9.6244 O.3     1  UNL1        0.0000
   3082 O          31.1535   18.7859    2.5052 O.3     1  UNL1        0.0000
   3083 O          23.6289   16.3706   10.1096 O.3     1  UNL1        0.0000
   3084 O          32.0146   21.1040    2.9532 O.3     1  UNL1        0.0000
   3085 O          21.9406   14.5853   10.6096 O.3     1  UNL1        0.0000
   3086 O          26.6565   11.5396   10.6743 O.3     1  UNL1        0.0000
   3087 O          27.9662   23.4987    2.9093 O.3     1  UNL1        0.0000
   3088 O          27.5285   13.8335   10.2080 O.3     1  UNL1        0.0000
   3089 O          26.3193   21.6838    2.3989 O.3     1  UNL1        0.0000
   3090 O          29.5719   19.4645    5.2443 O.3     1  UNL1        0.0000
   3091 O          23.1607   13.3543    7.9235 O.3     1  UNL1        0.0000
   3092 O          29.0632   10.7669   11.9620 O.3     1  UNL1        0.0000
   3093 O          26.7403   25.3832    1.1444 O.2     1  UNL1        0.0000
   3094 O          29.7678   13.5813   11.9563 O.2     1  UNL1        0.0000
   3095 O          24.5694   23.4708    1.0941 O.3     1  UNL1        0.0000
   3096 O          25.0258   12.0889    7.9912 O.3     1  UNL1        0.0000
   3097 O          27.5711   20.4964    5.1176 O.3     1  UNL1        0.0000
   3098 O          34.1960   20.8295    1.0833 O.3     1  UNL1        0.0000
   3099 O          20.2487   16.3658   11.9440 O.3     1  UNL1        0.0000
   3100 O          33.4970   18.0491    1.1133 O.3     1  UNL1        0.0000
   3101 O          22.4539   18.2259   12.0151 O.3     1  UNL1        0.0000
   3102 O          29.2660   21.1124    3.0197 O.3     1  UNL1        0.0000
   3103 O          24.8498   13.9407   10.0169 O.3     1  UNL1        0.0000
   3104 O          31.7448   19.9769    0.0716 O.3     1  UNL1        0.0000
   3105 O          22.7586   15.6791   13.0448 O.3     1  UNL1        0.0000
   3106 H          25.8606   19.6038    6.6485 H       1  UNL1        0.0000
   3107 H          24.9515   18.0472    8.4060 H       1  UNL1        0.0000
   3108 H          26.4083   16.2884    9.3560 H       1  UNL1        0.0000
   3109 H          29.6537   17.5810    6.8269 H       1  UNL1        0.0000
   3110 H          28.7438   16.0295    8.5834 H       1  UNL1        0.0000
   3111 C          26.7989   16.9569    8.5908 C.ar    1  UNL1        0.0000
   3112 C          26.4797   18.8194    7.0787 C.ar    1  UNL1        0.0000
   3113 C          28.6294   17.6748    7.1812 C.ar    1  UNL1        0.0000
   3114 C          28.1220   16.8136    8.1546 C.ar    1  UNL1        0.0000
   3115 C          25.9774   17.9555    8.0529 C.ar    1  UNL1        0.0000
   3116 C          27.8105   18.6842    6.6396 C.ar    1  UNL1        0.0000
   3117 H          30.7378   23.4462    3.8453 H      24  UNL24       0.0000
   3118 H          29.4284   25.3875    4.6503 H      24  UNL24       0.0000
   3119 H          32.9959   22.9868    4.7446 H      24  UNL24       0.0000
   3120 H          37.4377   12.5486    6.3785 H      24  UNL24       0.0000
   3121 H          17.9720   24.5196    6.4782 H       1  UNL1        0.0000
   3122 C          32.4381   23.8465    5.1127 C.2    24  UNL24       0.0000
   3123 C          37.9880   11.6822    6.0174 C.2    24  UNL24       0.0000
   3124 C          30.4208   25.2044    5.0587 C.2    24  UNL24       0.0000
   3125 C          16.9780   24.6964    6.0734 C.ar    1  UNL1        0.0000
   3126 C          31.1582   24.1031    4.6051 C.2    24  UNL24       0.0000
   3127 C          23.2668   11.4321    6.5282 C.ar    1  UNL1        0.0000
   3128 H          29.4197   18.1253   10.4885 H      24  UNL24       0.0000
   3129 H          30.2439   18.1996   12.0704 H      24  UNL24       0.0000
   3130 H          30.5559   16.8419   10.9544 H      24  UNL24       0.0000
   3131 H          26.8492   18.4247   10.6060 H      24  UNL24       0.0000
   3132 H          25.1290   19.7623   12.3532 H      24  UNL24       0.0000
   3133 H          28.2273   15.9936   11.2434 H      24  UNL24       0.0000
   3134 H          29.0170   16.1290   12.8174 H      24  UNL24       0.0000
   3135 C          25.9221   19.0481   12.5385 C.2    24  UNL24       0.0000
   3136 C          28.6620   16.7070   11.9568 C.3    24  UNL24       0.0000
   3137 C          26.7622   18.3872   11.6838 C.2    24  UNL24       0.0000
   3138 C          29.7858   17.5284   11.3334 C.3    24  UNL24       0.0000
   3139 N          27.5683   17.5685   12.4564 N.pl3  24  UNL24       0.0000
   3140 H          30.6333   26.4778    2.7163 H      24  UNL24       0.0000
   3141 H          29.3438   27.2359    1.7375 H      24  UNL24       0.0000
   3142 H          29.1721   25.5355    2.2624 H      24  UNL24       0.0000
   3143 H          32.0045   24.4646    1.4820 H      24  UNL24       0.0000
   3144 C          29.8820   26.3069    1.9401 C.3    24  UNL24       0.0000
   3145 C          31.5473   24.9701    0.6399 C.2    24  UNL24       0.0000
   3146 N          30.5490   25.8709    0.7089 N.2    24  UNL24       0.0000
   3147 TI         17.8160    9.2531   24.3754 Ti      1  UNL1        0.0000
   3148 TI         28.4870   12.5209   14.9547 Ti      1  UNL1        0.0000
   3149 TI         22.0369    5.4641   22.5273 Ti      1  UNL1        0.0000
   3150 TI         23.1960   14.6802   16.7587 Ti      1  UNL1        0.0000
   3151 TI         22.1289   16.3250   14.8622 Ti      1  UNL1        0.0000
   3152 TI         23.9437    5.2733   24.4698 Ti      1  UNL1        0.0000
   3153 TI         18.8144    7.5536   22.4763 Ti      1  UNL1        0.0000
   3154 TI         26.5002   12.7518   16.8136 Ti      1  UNL1        0.0000
   3155 H          18.1806   13.1656   24.1586 H       1  UNL1        0.0000
   3156 H          29.4331    8.6450   15.2654 H       1  UNL1        0.0000
   3157 H          13.8827    8.3596   24.0139 H       1  UNL1        0.0000
   3158 H          31.7984   14.6415   15.1394 H      50  UNL50       0.0000
   3159 H          25.0570    1.2757   24.0728 H       1  UNL1        0.0000
   3160 H          18.0953   15.5938   15.2060 H       1  UNL1        0.0000
   3161 H          18.3570    7.4695   26.0944 H       1  UNL1        0.0000
   3162 H          26.6116   12.2151   13.2649 H       1  UNL1        0.0000
   3163 H          24.4457    4.6310   18.9550 H       1  UNL1        0.0000
   3164 H          21.4299   16.4518   20.3897 H       1  UNL1        0.0000
   3165 H          14.6244   10.7988   22.1477 H       1  UNL1        0.0000
   3166 H          31.3255   10.5310   17.2425 H       1  UNL1        0.0000
   3167 H          16.9558    9.4364   18.7991 H       1  UNL1        0.0000
   3168 H          18.9803   18.0410   17.2352 H       1  UNL1        0.0000
   3169 H          22.4177   19.4386   15.7198 H       1  UNL1        0.0000
   3170 H          29.3523    6.6204   16.4660 H       1  UNL1        0.0000
   3171 H          25.2909   14.4350   15.4080 H       1  UNL1        0.0000
   3172 H          20.8998    7.2722   23.8294 H       1  UNL1        0.0000
   3173 H          28.0995    7.3564   22.8387 H       1  UNL1        0.0000
   3174 H          26.6398    6.8351   23.5936 H       1  UNL1        0.0000
   3175 H          28.5128   11.8086   21.7428 H       1  UNL1        0.0000
   3176 H          27.9219   12.1491   20.1279 H       1  UNL1        0.0000
   3177 H          27.7824    2.3878   22.6444 H       1  UNL1        0.0000
   3178 H          26.4683    3.4426   23.1105 H       1  UNL1        0.0000
   3179 C          29.1065   11.7968   17.8139 C.2     1  UNL1        0.0000
   3180 C          16.8310    9.4843   21.5341 C.3     1  UNL1        0.0000
   3181 C          24.6458    4.5450   21.5868 C.3     1  UNL1        0.0000
   3182 C          21.1978   16.5810   17.7315 C.3     1  UNL1        0.0000
   3183 C          30.0286   11.2228   18.8033 C.2     1  UNL1        0.0000
   3184 C          15.8724   10.0777   20.5632 C.ar    1  UNL1        0.0000
   3185 C          25.6015    3.9649   20.6336 C.ar    1  UNL1        0.0000
   3186 C          20.2916   17.1952   18.7372 C.ar    1  UNL1        0.0000
   3187 C          29.7852   11.2874   20.2112 C.3     1  UNL1        0.0000
   3188 C          16.0851    9.9670   19.1738 C.ar    1  UNL1        0.0000
   3189 C          26.7593    3.2438   21.0793 C.ar    1  UNL1        0.0000
   3190 C          19.1682   17.9301   18.2994 C.ar    1  UNL1        0.0000
   3191 C          20.5595   17.0318   20.0904 C.ar    1  UNL1        0.0000
   3192 C          25.3416    4.0900   19.2512 C.ar    1  UNL1        0.0000
   3193 C          31.1832   10.5643   18.3203 C.3     1  UNL1        0.0000
   3194 C          14.7516   10.7308   21.0689 C.ar    1  UNL1        0.0000
   3195 C          29.3994    8.7259   13.1216 C.ar    1  UNL1        0.0000
   3196 C          22.5233   20.2851   13.1989 C.ar    1  UNL1        0.0000
   3197 C          27.3684    7.3330   26.1001 C.2     1  UNL1        0.0000
   3198 C          13.9646    8.4094   26.1570 C.ar    1  UNL1        0.0000
   3199 C          24.0348   12.3621   18.7159 C.3     1  UNL1        0.0000
   3200 C          19.5393    5.1042   20.6505 C.3     1  UNL1        0.0000
   3201 C          24.9003    2.9360   26.2114 C.3     1  UNL1        0.0000
   3202 C          22.4803   18.8492   13.1600 C.3     1  UNL1        0.0000
   3203 C          26.0931    6.6713   26.1533 C.2     1  UNL1        0.0000
   3204 C          15.3517    8.8723   26.1743 C.3     1  UNL1        0.0000
   3205 C          29.4688    8.0571   14.3501 C.ar    1  UNL1        0.0000
   3206 C          18.1762   13.7529   25.0733 C.ar    1  UNL1        0.0000
   3207 C          16.3238   14.8681   14.2205 C.ar    1  UNL1        0.0000
   3208 C          13.3330    8.1596   24.9321 C.ar    1  UNL1        0.0000
   3209 C          28.0460    7.6272   24.8637 C.3     1  UNL1        0.0000
   3210 C          17.5951   15.3926   14.2627 C.ar    1  UNL1        0.0000
   3211 C          25.1223    0.7491   25.0209 C.ar    1  UNL1        0.0000
   3212 C          29.5398    6.6580   14.4292 C.ar    1  UNL1        0.0000
   3213 N          29.6226    6.0599   15.6662 N.pl3   1  UNL1        0.0000
   3214 N          27.4668    7.4258   23.6277 N.3     1  UNL1        0.0000
   3215 N          28.6855   11.8950   20.7494 N.3     1  UNL1        0.0000
   3216 N          27.1030    3.0956   22.3946 N.pl3   1  UNL1        0.0000
   3217 O          27.9189   12.1602   18.1868 O.2     1  UNL1        0.0000
   3218 O          17.6304    8.5613   21.1303 O.3     1  UNL1        0.0000
   3219 O          25.0295    4.6812   22.8060 O.3     1  UNL1        0.0000
   3220 O          21.1103   17.0095   16.5329 O.3     1  UNL1        0.0000
   3221 O          22.0033   15.6507   18.1124 O.3     1  UNL1        0.0000
   3222 O          23.4610    4.8729   21.1883 O.3     1  UNL1        0.0000
   3223 O          29.5085   11.8933   16.6000 O.2     1  UNL1        0.0000
   3224 O          16.7805    9.9174   22.7347 O.3     1  UNL1        0.0000
   3225 O          26.8410   11.5467   15.6155 O.3     1  UNL1        0.0000
   3226 O          19.3164    9.1313   23.2199 O.3     1  UNL1        0.0000
   3227 O          27.7021   13.8648   16.0635 O.3     1  UNL1        0.0000
   3228 O          17.6281    7.3461   23.7199 O.3     1  UNL1        0.0000
   3229 O          22.3439    4.3004   23.7846 O.3     1  UNL1        0.0000
   3230 O          23.6537   16.2595   16.0195 O.3     1  UNL1        0.0000
   3231 O          23.2160    6.5943   23.3183 O.3     1  UNL1        0.0000
   3232 O          22.0068   14.4446   15.5092 O.3     1  UNL1        0.0000
   3233 O          25.2594   12.2253   18.3546 O.3     1  UNL1        0.0000
   3234 O          18.8481    6.1151   21.0338 O.3     1  UNL1        0.0000
   3235 O          24.7507    3.5277   25.0723 O.3     1  UNL1        0.0000
   3236 O          22.4278   18.1440   14.2546 O.3     1  UNL1        0.0000
   3237 O          25.4552    6.3421   25.0666 O.2     1  UNL1        0.0000
   3238 O          20.2568   16.2316   14.2044 O.3     1  UNL1        0.0000
   3239 O          20.7132    4.8497   21.1014 O.3     1  UNL1        0.0000
   3240 O          23.2586   13.2572   18.2279 O.3     1  UNL1        0.0000
   3241 O          29.8835   13.5903   14.1936 O.2     1  UNL1        0.0000
   3242 O          15.9362    9.1266   25.0543 O.3     1  UNL1        0.0000
   3243 O          29.1845   10.8099   14.2236 O.3     1  UNL1        0.0000
   3244 O          18.1414   10.9867   25.1254 O.3     1  UNL1        0.0000
   3245 O          24.9535   13.8732   16.1299 O.3     1  UNL1        0.0000
   3246 O          20.5373    6.7015   23.1272 O.3     1  UNL1        0.0000
   3247 O          27.4323   12.7377   13.1819 O.3     1  UNL1        0.0000
   3248 O          18.4460    8.4399   26.1551 O.3     1  UNL1        0.0000
   3249 H          21.5481   12.3646   19.7588 H       1  UNL1        0.0000
   3250 H          20.6390   10.8080   21.5163 H       1  UNL1        0.0000
   3251 H          22.0958    9.0492   22.4663 H       1  UNL1        0.0000
   3252 H          25.3412   10.3418   19.9372 H       1  UNL1        0.0000
   3253 H          24.4312    8.7903   21.6937 H       1  UNL1        0.0000
   3254 C          22.4864    9.7177   21.7011 C.ar    1  UNL1        0.0000
   3255 C          22.1671   11.5802   20.1890 C.ar    1  UNL1        0.0000
   3256 C          24.3169   10.4356   20.2915 C.ar    1  UNL1        0.0000
   3257 C          23.8095    9.5744   21.2649 C.ar    1  UNL1        0.0000
   3258 C          21.6649   10.7163   21.1632 C.ar    1  UNL1        0.0000
   3259 C          23.4979   11.4450   19.7498 C.ar    1  UNL1        0.0000
   3260 H          26.4252   16.2070   16.9556 H      24  UNL24       0.0000
   3261 H          25.1158   18.1483   17.7606 H      24  UNL24       0.0000
   3262 H          28.6833   15.7476   17.8549 H      24  UNL24       0.0000
   3263 H          33.1252    5.3094   19.4887 H      24  UNL24       0.0000
   3264 H          13.6595   17.2804   19.5885 H       1  UNL1        0.0000
   3265 C          28.1256   16.6073   18.2230 C.2    24  UNL24       0.0000
   3266 C          33.6754    4.4430   19.1277 C.2    24  UNL24       0.0000
   3267 C          26.1083   17.9652   18.1689 C.2    24  UNL24       0.0000
   3268 C          12.6655   17.4572   19.1837 C.ar    1  UNL1        0.0000
   3269 C          26.8456   16.8639   17.7154 C.2    24  UNL24       0.0000
   3270 C          18.9542    4.1929   19.6385 C.ar    1  UNL1        0.0000
   3271 H          25.1072   10.8861   23.5988 H      24  UNL24       0.0000
   3272 H          25.9314   10.9604   25.1807 H      24  UNL24       0.0000
   3273 H          26.2434    9.6027   24.0647 H      24  UNL24       0.0000
   3274 H          22.5367   11.1855   23.7162 H      24  UNL24       0.0000
   3275 H          20.8165   12.5231   25.4635 H      24  UNL24       0.0000
   3276 H          23.9148    8.7544   24.3536 H      24  UNL24       0.0000
   3277 H          24.7045    8.8898   25.9277 H      24  UNL24       0.0000
   3278 C          21.6095   11.8089   25.6488 C.2    24  UNL24       0.0000
   3279 C          24.3495    9.4678   25.0671 C.3    24  UNL24       0.0000
   3280 C          22.4497   11.1480   24.7940 C.2    24  UNL24       0.0000
   3281 C          25.4732   10.2892   24.4437 C.3    24  UNL24       0.0000
   3282 N          23.2558   10.3293   25.5666 N.pl3  24  UNL24       0.0000
   3283 H          26.3208   19.2386   15.8266 H      24  UNL24       0.0000
   3284 H          25.0312   19.9967   14.8478 H      24  UNL24       0.0000
   3285 H          24.8596   18.2963   15.3727 H      24  UNL24       0.0000
   3286 H          27.6920   17.2254   14.5923 H      24  UNL24       0.0000
   3287 C          25.5695   19.0677   15.0504 C.3    24  UNL24       0.0000
   3288 C          27.2347   17.7309   13.7501 C.3    24  UNL24       0.0000
   3289 N          26.2365   18.6317   13.8192 N.pl3  24  UNL24       0.0000
   3290 TI         13.5034    2.0139   37.4857 Ti      1  UNL1        0.0000
   3291 TI         24.1745    5.2817   28.0650 Ti      1  UNL1        0.0000
   3292 TI         17.7244   -1.7751   35.6375 Ti      1  UNL1        0.0000
   3293 TI         18.8834    7.4410   29.8690 Ti      1  UNL1        0.0000
   3294 TI         17.8164    9.0858   27.9725 Ti      1  UNL1        0.0000
   3295 TI         19.6312   -1.9659   37.5800 Ti      1  UNL1        0.0000
   3296 TI         14.5019    0.3144   35.5866 Ti      1  UNL1        0.0000
   3297 TI         22.1877    5.5126   29.9238 Ti      1  UNL1        0.0000
   3298 H          13.8681    5.9264   37.2689 H      24  UNL24       0.0000
   3299 H          25.1205    1.4058   28.3757 H       1  UNL1        0.0000
   3300 H           9.5702    1.1204   37.1242 H       1  UNL1        0.0000
   3301 H          27.4859    7.4023   28.2496 H      51  UNL51       0.0000
   3302 H          20.7445   -5.9635   37.1831 H      24  UNL24       0.0000
   3303 H          13.7827    8.3546   28.3163 H       1  UNL1        0.0000
   3304 H          14.0445    0.2303   39.2047 H       1  UNL1        0.0000
   3305 H          22.2991    4.9759   26.3751 H       1  UNL1        0.0000
   3306 H          20.1332   -2.6082   32.0653 H       1  UNL1        0.0000
   3307 H          17.1174    9.2126   33.5000 H       1  UNL1        0.0000
   3308 H          10.3118    3.5596   35.2580 H       1  UNL1        0.0000
   3309 H          27.0130    3.2918   30.3527 H       1  UNL1        0.0000
   3310 H          12.6432    2.1972   31.9094 H       1  UNL1        0.0000
   3311 H          14.6678   10.8018   30.3455 H       1  UNL1        0.0000
   3312 H          18.1052   12.1994   28.8301 H       1  UNL1        0.0000
   3313 H          25.0398   -0.6188   29.5763 H       1  UNL1        0.0000
   3314 H          20.9784    7.1958   28.5183 H       1  UNL1        0.0000
   3315 H          16.5873    0.0330   36.9397 H       1  UNL1        0.0000
   3316 H          23.7870    0.1172   35.9489 H       1  UNL1        0.0000
   3317 H          22.3273   -0.4041   36.7038 H       1  UNL1        0.0000
   3318 H          24.2002    4.5694   34.8530 H       1  UNL1        0.0000
   3319 H          23.6094    4.9099   33.2382 H       1  UNL1        0.0000
   3320 H          23.4699   -4.8514   35.7547 H       1  UNL1        0.0000
   3321 H          22.1558   -3.7966   36.2207 H       1  UNL1        0.0000
   3322 C          24.7940    4.5576   30.9242 C.2     1  UNL1        0.0000
   3323 C          12.5185    2.2451   34.6444 C.3     1  UNL1        0.0000
   3324 C          20.3333   -2.6942   34.6971 C.3     1  UNL1        0.0000
   3325 C          16.8853    9.3418   30.8418 C.3     1  UNL1        0.0000
   3326 C          25.7161    3.9836   31.9136 C.2     1  UNL1        0.0000
   3327 C          11.5599    2.8385   33.6734 C.ar    1  UNL1        0.0000
   3328 C          21.2890   -3.2743   33.7439 C.ar    1  UNL1        0.0000
   3329 C          15.9791    9.9560   31.8474 C.ar    1  UNL1        0.0000
   3330 C          25.4727    4.0482   33.3215 C.3     1  UNL1        0.0000
   3331 C          11.7726    2.7278   32.2841 C.ar    1  UNL1        0.0000
   3332 C          22.4468   -3.9954   34.1896 C.ar    1  UNL1        0.0000
   3333 C          14.8557   10.6909   31.4097 C.ar    1  UNL1        0.0000
   3334 C          16.2470    9.7926   33.2006 C.ar    1  UNL1        0.0000
   3335 C          21.0291   -3.1492   32.3615 C.ar    1  UNL1        0.0000
   3336 C          26.8707    3.3251   31.4306 C.3     1  UNL1        0.0000
   3337 C          10.4391    3.4916   34.1792 C.ar    1  UNL1        0.0000
   3338 C          25.0868    1.4867   26.2319 C.ar    1  UNL1        0.0000
   3339 C          18.2108   13.0459   26.3092 C.ar    1  UNL1        0.0000
   3340 C          23.0559    0.0938   39.2104 C.2     1  UNL1        0.0000
   3341 C           9.6520    1.1702   39.2673 C.2     1  UNL1        0.0000
   3342 C          19.7222    5.1229   31.8261 C.3     1  UNL1        0.0000
   3343 C          15.2268   -2.1350   33.7608 C.3     1  UNL1        0.0000
   3344 C          20.5877   -4.3032   39.3217 C.3     1  UNL1        0.0000
   3345 C          18.1678   11.6100   26.2702 C.3     1  UNL1        0.0000
   3346 C          21.7806   -0.5679   39.2636 C.2     1  UNL1        0.0000
   3347 C          11.0392    1.6331   39.2845 C.2     1  UNL1        0.0000
   3348 C          25.1563    0.8179   27.4604 C.ar    1  UNL1        0.0000
   3349 C          13.8637    6.5137   38.1835 C.2    24  UNL24       0.0000
   3350 C          12.0112    7.6289   27.3308 C.ar    1  UNL1        0.0000
   3351 C           9.0204    0.9204   38.0424 C.2     1  UNL1        0.0000
   3352 C          23.7335    0.3880   37.9739 C.3     1  UNL1        0.0000
   3353 C          13.2826    8.1534   27.3730 C.ar    1  UNL1        0.0000
   3354 C          20.8098   -6.4901   38.1312 C.2    24  UNL24       0.0000
   3355 C          25.2272   -0.5812   27.5394 C.ar    1  UNL1        0.0000
   3356 N          25.3100   -1.1793   28.7764 N.pl3   1  UNL1        0.0000
   3357 N          23.1542    0.1866   36.7380 N.3     1  UNL1        0.0000
   3358 N          24.3730    4.6557   33.8596 N.3     1  UNL1        0.0000
   3359 N          22.7904   -4.1436   35.5049 N.pl3   1  UNL1        0.0000
   3360 O          23.6063    4.9210   31.2971 O.2     1  UNL1        0.0000
   3361 O          13.3178    1.3221   34.2406 O.3     1  UNL1        0.0000
   3362 O          20.7170   -2.5580   35.9163 O.3     1  UNL1        0.0000
   3363 O          16.7978    9.7703   29.6432 O.3     1  UNL1        0.0000
   3364 O          17.6908    8.4115   31.2227 O.3     1  UNL1        0.0000
   3365 O          19.1485   -2.3663   34.2986 O.3     1  UNL1        0.0000
   3366 O          25.1960    4.6541   29.7103 O.2     1  UNL1        0.0000
   3367 O          12.4680    2.6782   35.8450 O.3     1  UNL1        0.0000
   3368 O          22.5284    4.3075   28.7258 O.3     1  UNL1        0.0000
   3369 O          15.0038    1.8921   36.3302 O.3     1  UNL1        0.0000
   3370 O          23.3895    6.6256   29.1737 O.3     1  UNL1        0.0000
   3371 O          13.3155    0.1069   36.8302 O.3     1  UNL1        0.0000
   3372 O          18.0314   -2.9388   36.8949 O.3     1  UNL1        0.0000
   3373 O          19.3412    9.0203   29.1298 O.3     1  UNL1        0.0000
   3374 O          18.9034   -0.6449   36.4286 O.3     1  UNL1        0.0000
   3375 O          17.6943    7.2054   28.6194 O.3     1  UNL1        0.0000
   3376 O          20.9469    4.9861   31.4649 O.3     1  UNL1        0.0000
   3377 O          14.5356   -1.1241   34.1441 O.3     1  UNL1        0.0000
   3378 O          20.4382   -3.7115   38.1826 O.3     1  UNL1        0.0000
   3379 O          18.1153   10.9048   27.3649 O.3     1  UNL1        0.0000
   3380 O          21.1427   -0.8971   38.1769 O.2     1  UNL1        0.0000
   3381 O          15.9443    8.9924   27.3147 O.3     1  UNL1        0.0000
   3382 O          16.4007   -2.3895   34.2117 O.3     1  UNL1        0.0000
   3383 O          18.9460    6.0180   31.3382 O.3     1  UNL1        0.0000
   3384 O          25.5710    6.3511   27.3039 O.2     1  UNL1        0.0000
   3385 O          11.6236    1.8874   38.1645 O.2     1  UNL1        0.0000
   3386 O          24.8719    3.5707   27.3338 O.3     1  UNL1        0.0000
   3387 O          13.8288    3.7475   38.2357 O.3     1  UNL1        0.0000
   3388 O          20.6409    6.6340   29.2402 O.3     1  UNL1        0.0000
   3389 O          16.2248   -0.5377   36.2375 O.3     1  UNL1        0.0000
   3390 O          23.1197    5.4985   26.2921 O.3     1  UNL1        0.0000
   3391 O          14.1335    1.2007   39.2653 O.3     1  UNL1        0.0000
   3392 H          17.2356    5.1254   32.8691 H       1  UNL1        0.0000
   3393 H          16.3265    3.5688   34.6266 H       1  UNL1        0.0000
   3394 H          17.7832    1.8100   35.5766 H       1  UNL1        0.0000
   3395 H          21.0287    3.1026   33.0474 H       1  UNL1        0.0000
   3396 H          20.1187    1.5511   34.8039 H       1  UNL1        0.0000
   3397 C          18.1738    2.4785   34.8114 C.ar    1  UNL1        0.0000
   3398 C          17.8546    4.3410   33.2993 C.ar    1  UNL1        0.0000
   3399 C          20.0044    3.1964   33.4017 C.ar    1  UNL1        0.0000
   3400 C          19.4970    2.3352   34.3751 C.ar    1  UNL1        0.0000
   3401 C          17.3523    3.4771   34.2734 C.ar    1  UNL1        0.0000
   3402 C          19.1854    4.2058   32.8601 C.ar    1  UNL1        0.0000
   3403 H          22.1127    8.9678   30.0659 H      24  UNL24       0.0000
   3404 H          20.8033   10.9091   30.8709 H      24  UNL24       0.0000
   3405 H          24.3708    8.5084   30.9651 H      24  UNL24       0.0000
   3406 H          28.8127   -1.9298   32.5990 H      24  UNL24       0.0000
   3407 H           9.3470   10.0412   32.6988 H       1  UNL1        0.0000
   3408 C          23.8130    9.3680   31.3332 C.2    24  UNL24       0.0000
   3409 C          29.3629   -2.7962   32.2379 C.2    24  UNL24       0.0000
   3410 C          21.7958   10.7260   31.2792 C.2    24  UNL24       0.0000
   3411 C           8.3530   10.2180   32.2939 C.ar    1  UNL1        0.0000
   3412 C          22.5331    9.6247   30.8257 C.2    24  UNL24       0.0000
   3413 C          14.6417   -3.0463   32.7488 C.ar    1  UNL1        0.0000
   3414 H          20.7946    3.6469   36.7090 H      24  UNL24       0.0000
   3415 H          21.6189    3.7212   38.2909 H      24  UNL24       0.0000
   3416 H          21.9309    2.3635   37.1749 H      24  UNL24       0.0000
   3417 H          18.2242    3.9463   36.8265 H      24  UNL24       0.0000
   3418 H          16.5039    5.2839   38.5738 H      24  UNL24       0.0000
   3419 H          19.6022    1.5152   37.4639 H      24  UNL24       0.0000
   3420 H          20.3920    1.6506   39.0380 H      24  UNL24       0.0000
   3421 C          17.2970    4.5697   38.7591 C.2    24  UNL24       0.0000
   3422 C          20.0369    2.2286   38.1774 C.3    24  UNL24       0.0000
   3423 C          18.1371    3.9088   37.9043 C.2    24  UNL24       0.0000
   3424 C          21.1607    3.0500   37.5540 C.3    24  UNL24       0.0000
   3425 N          18.9433    3.0901   38.6769 N.pl3  24  UNL24       0.0000
   3426 H          22.0083   11.9994   28.9369 H      24  UNL24       0.0000
   3427 H          20.7187   12.7574   27.9581 H      24  UNL24       0.0000
   3428 H          20.5471   11.0571   28.4830 H      24  UNL24       0.0000
   3429 H          23.3794    9.9862   27.7026 H      24  UNL24       0.0000
   3430 C          21.2570   11.8285   28.1606 C.3    24  UNL24       0.0000
   3431 C          22.9222   10.4917   26.8604 C.3    24  UNL24       0.0000
   3432 N          21.9239   11.3925   26.9294 N.pl3  24  UNL24       0.0000
   3433 TI         15.1066   30.8691   11.2652 Ti      1  UNL1        0.0000
   3434 TI         25.7776   34.1369    1.8444 Ti     24  UNL24       0.0000
   3435 TI         19.3275   27.0801    9.4170 Ti      1  UNL1        0.0000
   3436 TI         20.4866   36.2962    3.6484 Ti     24  UNL24       0.0000
   3437 TI         19.4195   37.9411    1.7520 Ti     24  UNL24       0.0000
   3438 TI         21.2343   26.8893   11.3595 Ti      1  UNL1        0.0000
   3439 TI         16.1050   29.1696    9.3660 Ti      1  UNL1        0.0000
   3440 TI         23.7908   34.3678    3.7033 Ti     24  UNL24       0.0000
   3441 H          15.4712   34.7816   11.0484 H       1  UNL1        0.0000
   3442 H          26.7237   30.2610    2.1552 H       1  UNL1        0.0000
   3443 H          11.1733   29.9756   10.9036 H       1  UNL1        0.0000
   3444 H          29.0890   36.2575    2.0291 H      52  UNL52       0.0000
   3445 H          22.3476   22.8917   10.9625 H       1  UNL1        0.0000
   3446 H          15.3859   37.2098    2.0957 H      24  UNL24       0.0000
   3447 H          15.6476   29.0855   12.9842 H       1  UNL1        0.0000
   3448 H          23.9022   33.8311    0.1546 H      24  UNL24       0.0000
   3449 H          21.7363   26.2470    5.8447 H       1  UNL1        0.0000
   3450 H          18.7205   38.0678    7.2795 H      24  UNL24       0.0000
   3451 H          11.9150   32.4148    9.0374 H       1  UNL1        0.0000
   3452 H          28.6161   32.1470    4.1322 H      24  UNL24       0.0000
   3453 H          14.2464   31.0524    5.6889 H       1  UNL1        0.0000
   3454 H          16.2709   39.6570    4.1249 H      24  UNL24       0.0000
   3455 H          19.7083   41.0546    2.6096 H      53  UNL53       0.0000
   3456 H          26.6429   28.2364    3.3557 H       1  UNL1        0.0000
   3457 H          22.5815   36.0510    2.2978 H      24  UNL24       0.0000
   3458 H          18.1904   28.8882   10.7192 H       1  UNL1        0.0000
   3459 H          25.3901   28.9724    9.7284 H       1  UNL1        0.0000
   3460 H          23.9304   28.4512   10.4833 H       1  UNL1        0.0000
   3461 H          25.8034   33.4246    8.6325 H      24  UNL24       0.0000
   3462 H          25.2125   33.7651    7.0176 H      24  UNL24       0.0000
   3463 H          25.0730   24.0038    9.5342 H       1  UNL1        0.0000
   3464 H          23.7589   25.0586   10.0002 H       1  UNL1        0.0000
   3465 C          26.3971   33.4128    4.7037 C.2    24  UNL24       0.0000
   3466 C          14.1216   31.1003    8.4239 C.3     1  UNL1        0.0000
   3467 C          21.9364   26.1610    8.4766 C.3     1  UNL1        0.0000
   3468 C          18.4884   38.1970    4.6213 C.3    24  UNL24       0.0000
   3469 C          27.3192   32.8389    5.6930 C.2    24  UNL24       0.0000
   3470 C          13.1630   31.6937    7.4529 C.ar    1  UNL1        0.0000
   3471 C          22.8921   25.5809    7.5233 C.ar    1  UNL1        0.0000
   3472 C          17.5822   38.8112    5.6269 C.2    24  UNL24       0.0000
   3473 C          27.0758   32.9034    7.1009 C.3    24  UNL24       0.0000
   3474 C          13.3757   31.5830    6.0635 C.ar    1  UNL1        0.0000
   3475 C          24.0499   24.8598    7.9691 C.ar    1  UNL1        0.0000
   3476 C          16.4588   39.5461    5.1891 C.3    24  UNL24       0.0000
   3477 C          17.8501   38.6478    6.9801 C.2    24  UNL24       0.0000
   3478 C          22.6322   25.7060    6.1410 C.ar    1  UNL1        0.0000
   3479 C          28.4738   32.1803    5.2100 C.3    24  UNL24       0.0000
   3480 C          12.0422   32.3468    7.9586 C.ar    1  UNL1        0.0000
   3481 C          26.6899   30.3419    0.0113 C.3     1  UNL1        0.0000
   3482 C          19.8139   41.9011    0.0887 C.3    24  UNL24       0.0000
   3483 C          24.6590   28.9490   12.9898 C.2     1  UNL1        0.0000
   3484 C          11.2552   30.0254   13.0467 C.ar    1  UNL1        0.0000
   3485 C          21.3254   33.9781    5.6056 C.3    24  UNL24       0.0000
   3486 C          16.8299   26.7202    7.5402 C.3     1  UNL1        0.0000
   3487 C          22.1909   24.5520   13.1012 C.3     1  UNL1        0.0000
   3488 C          19.7709   40.4652    0.0497 C.3    24  UNL24       0.0000
   3489 C          23.3837   28.2873   13.0430 C.2     1  UNL1        0.0000
   3490 C          12.6423   30.4883   13.0640 C.3     1  UNL1        0.0000
   3491 C          26.7594   29.6731    1.2398 C.2     1  UNL1        0.0000
   3492 C          15.4668   35.3689   11.9630 C.3     1  UNL1        0.0000
   3493 C          13.6144   36.4842    1.1102 C.2    24  UNL24       0.0000
   3494 C          10.6235   29.7756   11.8218 C.ar    1  UNL1        0.0000
   3495 C          25.3366   29.2432   11.7534 C.3     1  UNL1        0.0000
   3496 C          14.8857   37.0086    1.1525 C.2    24  UNL24       0.0000
   3497 C          22.4129   22.3652   11.9106 C.ar    1  UNL1        0.0000
   3498 C          26.8303   28.2740    1.3189 C.2     1  UNL1        0.0000
   3499 N          26.9132   27.6760    2.5559 N.pl3   1  UNL1        0.0000
   3500 N          24.7574   29.0418   10.5174 N.3     1  UNL1        0.0000
   3501 N          25.9761   33.5110    7.6391 N.3    24  UNL24       0.0000
   3502 N          24.3936   24.7116    9.2844 N.pl3   1  UNL1        0.0000
   3503 O          25.2095   33.7763    5.0765 O.2    24  UNL24       0.0000
   3504 O          14.9210   30.1773    8.0200 O.3     1  UNL1        0.0000
   3505 O          22.3201   26.2972    9.6957 O.3     1  UNL1        0.0000
   3506 O          18.4009   38.6256    3.4226 O.3    24  UNL24       0.0000
   3507 O          19.2939   37.2667    5.0021 O.3    24  UNL24       0.0000
   3508 O          20.7516   26.4890    8.0781 O.3     1  UNL1        0.0000
   3509 O          26.7991   33.5093    3.4898 O.2    24  UNL24       0.0000
   3510 O          14.0711   31.5334    9.6244 O.3     1  UNL1        0.0000
   3511 O          24.1316   33.1627    2.5052 O.3    24  UNL24       0.0000
   3512 O          16.6070   30.7474   10.1096 O.3     1  UNL1        0.0000
   3513 O          24.9927   35.4808    2.9532 O.3    24  UNL24       0.0000
   3514 O          14.9187   28.9621   10.6096 O.3     1  UNL1        0.0000
   3515 O          19.6345   25.9164   10.6743 O.3     1  UNL1        0.0000
   3516 O          20.9443   37.8755    2.9093 O.3    24  UNL24       0.0000
   3517 O          20.5066   28.2103   10.2080 O.3     1  UNL1        0.0000
   3518 O          19.2974   36.0607    2.3989 O.3    24  UNL24       0.0000
   3519 O          22.5500   33.8413    5.2443 O.3    24  UNL24       0.0000
   3520 O          16.1387   27.7311    7.9235 O.3     1  UNL1        0.0000
   3521 O          22.0413   25.1437   11.9620 O.3     1  UNL1        0.0000
   3522 O          19.7184   39.7600    1.1444 O.3    24  UNL24       0.0000
   3523 O          22.7458   27.9581   11.9563 O.2     1  UNL1        0.0000
   3524 O          17.5474   37.8476    1.0941 O.3    24  UNL24       0.0000
   3525 O          18.0038   26.4657    7.9912 O.3     1  UNL1        0.0000
   3526 O          20.5492   34.8732    5.1176 O.3    24  UNL24       0.0000
   3527 O          27.1741   35.2063    1.0833 O.3    24  UNL24       0.0000
   3528 O          13.2268   30.7426   11.9440 O.3     1  UNL1        0.0000
   3529 O          26.4751   32.4259    1.1133 O.3    24  UNL24       0.0000
   3530 O          15.4320   32.6028   12.0151 O.2     1  UNL1        0.0000
   3531 O          22.2441   35.4892    3.0197 O.3    24  UNL24       0.0000
   3532 O          17.8279   28.3175   10.0169 O.3     1  UNL1        0.0000
   3533 O          24.7229   34.3538    0.0716 O.3    24  UNL24       0.0000
   3534 O          15.7366   30.0559   13.0448 O.3     1  UNL1        0.0000
   3535 H          18.8387   33.9807    6.6485 H      24  UNL24       0.0000
   3536 H          17.9296   32.4240    8.4060 H      24  UNL24       0.0000
   3537 H          19.3864   30.6652    9.3560 H      24  UNL24       0.0000
   3538 H          22.6318   31.9578    6.8269 H      24  UNL24       0.0000
   3539 H          21.7218   30.4063    8.5834 H      24  UNL24       0.0000
   3540 C          19.7769   31.3338    8.5908 C.ar   24  UNL24       0.0000
   3541 C          19.4577   33.1962    7.0787 C.ar   24  UNL24       0.0000
   3542 C          21.6075   32.0517    7.1812 C.ar   24  UNL24       0.0000
   3543 C          21.1001   31.1904    8.1546 C.ar   24  UNL24       0.0000
   3544 C          18.9555   32.3323    8.0529 C.ar   24  UNL24       0.0000
   3545 C          20.7885   33.0610    6.6396 C.ar   24  UNL24       0.0000
   3546 H          23.7158   37.8230    3.8453 H      24  UNL24       0.0000
   3547 H          22.4064   39.7643    4.6503 H      24  UNL24       0.0000
   3548 H          25.9739   37.3636    4.7446 H      24  UNL24       0.0000
   3549 H          30.4158   26.9254    6.3785 H      24  UNL24       0.0000
   3550 H          10.9501   38.8964    6.4782 H      33  UNL33       0.0000
   3551 C          25.4162   38.2233    5.1127 C.2    24  UNL24       0.0000
   3552 C          30.9660   26.0590    6.0174 C.2    24  UNL24       0.0000
   3553 C          23.3989   39.5812    5.0587 C.3    24  UNL24       0.0000
   3554 C           9.9561   39.0732    6.0734 C.2    33  UNL33       0.0000
   3555 C          24.1362   38.4799    4.6051 C.2    24  UNL24       0.0000
   3556 C          16.2448   25.8089    6.5282 C.ar    1  UNL1        0.0000
   3557 H          22.3978   32.5021   10.4885 H      24  UNL24       0.0000
   3558 H          23.2220   32.5764   12.0704 H      24  UNL24       0.0000
   3559 H          23.5340   31.2187   10.9544 H      24  UNL24       0.0000
   3560 H          19.8273   32.8015   10.6060 H      24  UNL24       0.0000
   3561 H          18.1071   34.1391   12.3532 H      24  UNL24       0.0000
   3562 H          21.2054   30.3705   11.2434 H      24  UNL24       0.0000
   3563 H          21.9951   30.5058   12.8174 H      24  UNL24       0.0000
   3564 C          18.9001   33.4249   12.5385 C.2    24  UNL24       0.0000
   3565 C          21.6401   31.0838   11.9568 C.3    24  UNL24       0.0000
   3566 C          19.7403   32.7640   11.6838 C.2    24  UNL24       0.0000
   3567 C          22.7638   31.9052   11.3334 C.3    24  UNL24       0.0000
   3568 N          20.5464   31.9453   12.4564 N.pl3  24  UNL24       0.0000
   3569 H          23.6114   40.8546    2.7163 H      24  UNL24       0.0000
   3570 H          22.3218   41.6127    1.7375 H      24  UNL24       0.0000
   3571 H          22.1502   39.9123    2.2624 H      24  UNL24       0.0000
   3572 H          24.9826   38.8414    1.4820 H      24  UNL24       0.0000
   3573 C          22.8601   40.6837    1.9401 C.3    24  UNL24       0.0000
   3574 C          24.5253   39.3469    0.6399 C.2    24  UNL24       0.0000
   3575 N          23.5271   40.2477    0.7089 N.2    24  UNL24       0.0000
   3576 TI         10.7940   23.6299   24.3754 Ti      1  UNL1        0.0000
   3577 TI         21.4651   26.8977   14.9547 Ti      1  UNL1        0.0000
   3578 TI         15.0150   19.8409   22.5273 Ti      1  UNL1        0.0000
   3579 TI         16.1740   29.0570   16.7587 Ti      1  UNL1        0.0000
   3580 TI         15.1070   30.7018   14.8622 Ti      1  UNL1        0.0000
   3581 TI         16.9218   19.6501   24.4698 Ti      1  UNL1        0.0000
   3582 TI         11.7925   21.9304   22.4763 Ti      1  UNL1        0.0000
   3583 TI         19.4783   27.1286   16.8136 Ti      1  UNL1        0.0000
   3584 H          11.1587   27.5424   24.1586 H       1  UNL1        0.0000
   3585 H          22.4111   23.0218   15.2654 H       1  UNL1        0.0000
   3586 H           6.8608   22.7364   24.0139 H       1  UNL1        0.0000
   3587 H          24.7765   29.0183   15.1394 H      54  UNL54       0.0000
   3588 H          18.0351   15.6525   24.0728 H       1  UNL1        0.0000
   3589 H          11.0733   29.9706   15.2060 H       1  UNL1        0.0000
   3590 H          11.3351   21.8463   26.0944 H       1  UNL1        0.0000
   3591 H          19.5897   26.5919   13.2649 H       1  UNL1        0.0000
   3592 H          17.4238   19.0078   18.9550 H       1  UNL1        0.0000
   3593 H          14.4080   30.8286   20.3897 H       1  UNL1        0.0000
   3594 H           7.6024   25.1756   22.1477 H       1  UNL1        0.0000
   3595 H          24.3036   24.9078   17.2425 H       1  UNL1        0.0000
   3596 H           9.9338   23.8132   18.7991 H       1  UNL1        0.0000
   3597 H          11.9584   32.4178   17.2352 H       1  UNL1        0.0000
   3598 H          15.3958   33.8154   15.7198 H      55  UNL55       0.0000
   3599 H          22.3304   20.9972   16.4660 H       1  UNL1        0.0000
   3600 H          18.2690   28.8118   15.4080 H       1  UNL1        0.0000
   3601 H          13.8779   21.6490   23.8294 H       1  UNL1        0.0000
   3602 H          21.0776   21.7332   22.8387 H       1  UNL1        0.0000
   3603 H          19.6179   21.2120   23.5936 H       1  UNL1        0.0000
   3604 H          21.4908   26.1854   21.7428 H       1  UNL1        0.0000
   3605 H          20.9000   26.5259   20.1279 H       1  UNL1        0.0000
   3606 H          20.7605   16.7646   22.6444 H       1  UNL1        0.0000
   3607 H          19.4464   17.8194   23.1105 H       1  UNL1        0.0000
   3608 C          22.0846   26.1736   17.8139 C.2     1  UNL1        0.0000
   3609 C           9.8091   23.8611   21.5341 C.3     1  UNL1        0.0000
   3610 C          17.6239   18.9218   21.5868 C.3     1  UNL1        0.0000
   3611 C          14.1759   30.9578   17.7315 C.3     1  UNL1        0.0000
   3612 C          23.0067   25.5997   18.8033 C.2     1  UNL1        0.0000
   3613 C           8.8505   24.4545   20.5632 C.ar    1  UNL1        0.0000
   3614 C          18.5796   18.3417   20.6336 C.ar    1  UNL1        0.0000
   3615 C          13.2697   31.5720   18.7372 C.2     1  UNL1        0.0000
   3616 C          22.7633   25.6642   20.2112 C.3     1  UNL1        0.0000
   3617 C           9.0632   24.3438   19.1738 C.ar    1  UNL1        0.0000
   3618 C          19.7374   17.6206   21.0793 C.ar    1  UNL1        0.0000
   3619 C          12.1463   32.3069   18.2994 C.3     1  UNL1        0.0000
   3620 C          13.5376   31.4086   20.0904 C.2     1  UNL1        0.0000
   3621 C          18.3197   18.4668   19.2512 C.ar    1  UNL1        0.0000
   3622 C          24.1613   24.9411   18.3203 C.3     1  UNL1        0.0000
   3623 C           7.7297   25.1076   21.0689 C.ar    1  UNL1        0.0000
   3624 C          22.3774   23.1027   13.1216 C.ar    1  UNL1        0.0000
   3625 C          15.5014   34.6619   13.1989 C.2     1  UNL1        0.0000
   3626 C          20.3465   21.7098   26.1001 C.2     1  UNL1        0.0000
   3627 C           6.9426   22.7862   26.1570 C.ar    1  UNL1        0.0000
   3628 C          17.0128   26.7389   18.7159 C.3     1  UNL1        0.0000
   3629 C          12.5174   19.4810   20.6505 C.3     1  UNL1        0.0000
   3630 C          17.8783   17.3128   26.2114 C.3     1  UNL1        0.0000
   3631 C          15.4584   33.2260   13.1600 C.2     1  UNL1        0.0000
   3632 C          19.0712   21.0481   26.1533 C.2     1  UNL1        0.0000
   3633 C           8.3298   23.2491   26.1743 C.3     1  UNL1        0.0000
   3634 C          22.4469   22.4339   14.3501 C.ar    1  UNL1        0.0000
   3635 C          11.1543   28.1297   25.0733 C.3     1  UNL1        0.0000
   3636 C           9.3018   29.2450   14.2205 C.ar    1  UNL1        0.0000
   3637 C           6.3110   22.5364   24.9321 C.ar    1  UNL1        0.0000
   3638 C          21.0241   22.0040   24.8637 C.3     1  UNL1        0.0000
   3639 C          10.5732   29.7694   14.2627 C.ar    1  UNL1        0.0000
   3640 C          18.1004   15.1260   25.0209 C.ar    1  UNL1        0.0000
   3641 C          22.5178   21.0348   14.4292 C.ar    1  UNL1        0.0000
   3642 N          22.6006   20.4368   15.6662 N.pl3   1  UNL1        0.0000
   3643 N          20.4448   21.8026   23.6277 N.3     1  UNL1        0.0000
   3644 N          21.6636   26.2718   20.7494 N.3     1  UNL1        0.0000
   3645 N          20.0810   17.4724   22.3946 N.pl3   1  UNL1        0.0000
   3646 O          20.8969   26.5371   18.1868 O.2     1  UNL1        0.0000
   3647 O          10.6084   22.9381   21.1303 O.3     1  UNL1        0.0000
   3648 O          18.0076   19.0580   22.8060 O.3     1  UNL1        0.0000
   3649 O          14.0884   31.3864   16.5329 O.3     1  UNL1        0.0000
   3650 O          14.9814   30.0275   18.1124 O.3     1  UNL1        0.0000
   3651 O          16.4391   19.2497   21.1883 O.3     1  UNL1        0.0000
   3652 O          22.4866   26.2701   16.6000 O.2     1  UNL1        0.0000
   3653 O           9.7586   24.2942   22.7347 O.3     1  UNL1        0.0000
   3654 O          19.8190   25.9235   15.6155 O.3     1  UNL1        0.0000
   3655 O          12.2944   23.5082   23.2199 O.3     1  UNL1        0.0000
   3656 O          20.6801   28.2416   16.0635 O.3     1  UNL1        0.0000
   3657 O          10.6061   21.7229   23.7199 O.3     1  UNL1        0.0000
   3658 O          15.3220   18.6772   23.7846 O.3     1  UNL1        0.0000
   3659 O          16.6318   30.6363   16.0195 O.3     1  UNL1        0.0000
   3660 O          16.1940   20.9711   23.3183 O.3     1  UNL1        0.0000
   3661 O          14.9849   28.8215   15.5092 O.3     1  UNL1        0.0000
   3662 O          18.2375   26.6021   18.3546 O.3     1  UNL1        0.0000
   3663 O          11.8262   20.4919   21.0338 O.3     1  UNL1        0.0000
   3664 O          17.7288   17.9045   25.0723 O.3     1  UNL1        0.0000
   3665 O          15.4059   32.5208   14.2546 O.2     1  UNL1        0.0000
   3666 O          18.4333   20.7189   25.0666 O.2     1  UNL1        0.0000
   3667 O          13.2349   30.6084   14.2044 O.3     1  UNL1        0.0000
   3668 O          13.6913   19.2265   21.1014 O.3     1  UNL1        0.0000
   3669 O          16.2366   27.6340   18.2279 O.3     1  UNL1        0.0000
   3670 O          22.8616   27.9671   14.1936 O.2     1  UNL1        0.0000
   3671 O           8.9142   23.5034   25.0543 O.3     1  UNL1        0.0000
   3672 O          22.1625   25.1867   14.2236 O.3     1  UNL1        0.0000
   3673 O          11.1194   25.3636   25.1254 O.2     1  UNL1        0.0000
   3674 O          17.9315   28.2500   16.1299 O.3     1  UNL1        0.0000
   3675 O          13.5154   21.0783   23.1272 O.3     1  UNL1        0.0000
   3676 O          20.4103   27.1146   13.1819 O.3     1  UNL1        0.0000
   3677 O          11.4241   22.8167   26.1551 O.3     1  UNL1        0.0000
   3678 H          14.5261   26.7415   19.7588 H       1  UNL1        0.0000
   3679 H          13.6171   25.1848   21.5163 H       1  UNL1        0.0000
   3680 H          15.0738   23.4260   22.4663 H       1  UNL1        0.0000
   3681 H          18.3193   24.7186   19.9372 H       1  UNL1        0.0000
   3682 H          17.4093   23.1671   21.6937 H       1  UNL1        0.0000
   3683 C          15.4644   24.0946   21.7011 C.ar    1  UNL1        0.0000
   3684 C          15.1452   25.9570   20.1890 C.ar    1  UNL1        0.0000
   3685 C          17.2950   24.8125   20.2915 C.ar    1  UNL1        0.0000
   3686 C          16.7876   23.9512   21.2649 C.ar    1  UNL1        0.0000
   3687 C          14.6429   25.0931   21.1632 C.ar    1  UNL1        0.0000
   3688 C          16.4760   25.8218   19.7498 C.ar    1  UNL1        0.0000
   3689 H          19.4033   30.5838   16.9556 H      24  UNL24       0.0000
   3690 H          18.0939   32.5251   17.7606 H      24  UNL24       0.0000
   3691 H          21.6614   30.1244   17.8549 H      24  UNL24       0.0000
   3692 H          26.1033   19.6862   19.4887 H      24  UNL24       0.0000
   3693 H           6.6375   31.6572   19.5885 H      36  UNL36       0.0000
   3694 C          21.1036   30.9841   18.2230 C.2    24  UNL24       0.0000
   3695 C          26.6535   18.8198   19.1277 C.2    24  UNL24       0.0000
   3696 C          19.0864   32.3420   18.1689 C.3    24  UNL24       0.0000
   3697 C           5.6436   31.8340   19.1837 C.2    36  UNL36       0.0000
   3698 C          19.8237   31.2407   17.7154 C.2    24  UNL24       0.0000
   3699 C          11.9323   18.5697   19.6385 C.ar    1  UNL1        0.0000
   3700 H          18.0852   25.2629   23.5988 H      24  UNL24       0.0000
   3701 H          18.9095   25.3372   25.1807 H      24  UNL24       0.0000
   3702 H          19.2214   23.9795   24.0647 H      24  UNL24       0.0000
   3703 H          15.5148   25.5623   23.7162 H      24  UNL24       0.0000
   3704 H          13.7945   26.8999   25.4635 H      24  UNL24       0.0000
   3705 H          16.8928   23.1313   24.3536 H      24  UNL24       0.0000
   3706 H          17.6826   23.2666   25.9277 H      24  UNL24       0.0000
   3707 C          14.5876   26.1857   25.6488 C.2    24  UNL24       0.0000
   3708 C          17.3275   23.8446   25.0671 C.3    24  UNL24       0.0000
   3709 C          15.4277   25.5248   24.7940 C.2    24  UNL24       0.0000
   3710 C          18.4513   24.6660   24.4437 C.3    24  UNL24       0.0000
   3711 N          16.2339   24.7061   25.5666 N.pl3  24  UNL24       0.0000
   3712 H          19.2989   33.6154   15.8266 H      24  UNL24       0.0000
   3713 H          18.0093   34.3735   14.8478 H      24  UNL24       0.0000
   3714 H          17.8377   32.6731   15.3727 H      24  UNL24       0.0000
   3715 H          20.6700   31.6022   14.5923 H      24  UNL24       0.0000
   3716 C          18.5476   33.4445   15.0504 C.3    24  UNL24       0.0000
   3717 C          20.2128   32.1077   13.7501 C.3    24  UNL24       0.0000
   3718 N          19.2145   33.0085   13.8192 N.pl3  24  UNL24       0.0000
   3719 TI          6.4815   16.3907   37.4857 Ti      1  UNL1        0.0000
   3720 TI         17.1525   19.6585   28.0650 Ti      1  UNL1        0.0000
   3721 TI         10.7025   12.6017   35.6375 Ti      1  UNL1        0.0000
   3722 TI         11.8615   21.8178   29.8690 Ti      1  UNL1        0.0000
   3723 TI         10.7945   23.4626   27.9725 Ti      1  UNL1        0.0000
   3724 TI         12.6093   12.4109   37.5800 Ti      1  UNL1        0.0000
   3725 TI          7.4799   14.6912   35.5866 Ti      1  UNL1        0.0000
   3726 TI         15.1658   19.8894   29.9238 Ti      1  UNL1        0.0000
   3727 H           6.8462   20.3032   37.2689 H      24  UNL24       0.0000
   3728 H          18.0986   15.7826   28.3757 H       1  UNL1        0.0000
   3729 H           2.5482   15.4972   37.1242 H       1  UNL1        0.0000
   3730 H          20.4640   21.7791   28.2496 H      56  UNL56       0.0000
   3731 H          13.7225    8.4133   37.1831 H      24  UNL24       0.0000
   3732 H           6.7608   22.7314   28.3163 H       1  UNL1        0.0000
   3733 H           7.0226   14.6071   39.2047 H       1  UNL1        0.0000
   3734 H          15.2771   19.3527   26.3751 H       1  UNL1        0.0000
   3735 H          13.1113   11.7686   32.0653 H       1  UNL1        0.0000
   3736 H          10.0954   23.5894   33.5000 H       1  UNL1        0.0000
   3737 H           3.2899   17.9364   35.2580 H       1  UNL1        0.0000
   3738 H          19.9910   17.6686   30.3527 H       1  UNL1        0.0000
   3739 H           5.6213   16.5740   31.9094 H       1  UNL1        0.0000
   3740 H           7.6459   25.1786   30.3455 H       1  UNL1        0.0000
   3741 H          11.0832   26.5762   28.8301 H      57  UNL57       0.0000
   3742 H          18.0179   13.7580   29.5763 H       1  UNL1        0.0000
   3743 H          13.9565   21.5726   28.5183 H       1  UNL1        0.0000
   3744 H           9.5653   14.4098   36.9397 H       1  UNL1        0.0000
   3745 H          16.7650   14.4940   35.9489 H       1  UNL1        0.0000
   3746 H          15.3053   13.9728   36.7038 H       1  UNL1        0.0000
   3747 H          17.1783   18.9462   34.8530 H       1  UNL1        0.0000
   3748 H          16.5874   19.2867   33.2382 H       1  UNL1        0.0000
   3749 H          16.4479    9.5254   35.7547 H       1  UNL1        0.0000
   3750 H          15.1338   10.5802   36.2207 H       1  UNL1        0.0000
   3751 C          17.7720   18.9344   30.9242 C.2     1  UNL1        0.0000
   3752 C           5.4965   16.6219   34.6444 C.3     1  UNL1        0.0000
   3753 C          13.3114   11.6826   34.6971 C.3     1  UNL1        0.0000
   3754 C           9.8634   23.7186   30.8418 C.3     1  UNL1        0.0000
   3755 C          18.6941   18.3605   31.9136 C.2     1  UNL1        0.0000
   3756 C           4.5380   17.2153   33.6734 C.ar    1  UNL1        0.0000
   3757 C          14.2671   11.1025   33.7439 C.ar    1  UNL1        0.0000
   3758 C           8.9572   24.3328   31.8474 C.2     1  UNL1        0.0000
   3759 C          18.4508   18.4250   33.3215 C.3     1  UNL1        0.0000
   3760 C           4.7506   17.1046   32.2841 C.ar    1  UNL1        0.0000
   3761 C          15.4248   10.3814   34.1896 C.ar    1  UNL1        0.0000
   3762 C           7.8337   25.0677   31.4097 C.3     1  UNL1        0.0000
   3763 C           9.2250   24.1694   33.2006 C.2     1  UNL1        0.0000
   3764 C          14.0072   11.2276   32.3615 C.ar    1  UNL1        0.0000
   3765 C          19.8488   17.7019   31.4306 C.3     1  UNL1        0.0000
   3766 C           3.4172   17.8684   34.1792 C.ar    1  UNL1        0.0000
   3767 C          18.0649   15.8635   26.2319 C.ar    1  UNL1        0.0000
   3768 C          11.1889   27.4227   26.3092 C.2     1  UNL1        0.0000
   3769 C          16.0339   14.4706   39.2104 C.2     1  UNL1        0.0000
   3770 C           2.6301   15.5470   39.2673 C.2     1  UNL1        0.0000
   3771 C          12.7003   19.4997   31.8261 C.3     1  UNL1        0.0000
   3772 C           8.2048   12.2418   33.7608 C.3     1  UNL1        0.0000
   3773 C          13.5658   10.0736   39.3217 C.3     1  UNL1        0.0000
   3774 C          11.1459   25.9868   26.2702 C.2     1  UNL1        0.0000
   3775 C          14.7586   13.8089   39.2636 C.2     1  UNL1        0.0000
   3776 C           4.0172   16.0099   39.2845 C.2     1  UNL1        0.0000
   3777 C          18.1344   15.1947   27.4604 C.ar    1  UNL1        0.0000
   3778 C           6.8417   20.8905   38.1835 C.3    58  UNL58       0.0000
   3779 C           4.9893   22.0058   27.3308 C.ar    1  UNL1        0.0000
   3780 C           1.9985   15.2972   38.0424 C.2     1  UNL1        0.0000
   3781 C          16.7115   14.7648   37.9739 C.3     1  UNL1        0.0000
   3782 C           6.2607   22.5302   27.3730 C.ar    1  UNL1        0.0000
   3783 C          13.7878    7.8867   38.1312 C.2    24  UNL24       0.0000
   3784 C          18.2053   13.7956   27.5394 C.ar    1  UNL1        0.0000
   3785 N          18.2881   13.1976   28.7764 N.pl3   1  UNL1        0.0000
   3786 N          16.1323   14.5634   36.7380 N.3     1  UNL1        0.0000
   3787 N          17.3510   19.0326   33.8596 N.3     1  UNL1        0.0000
   3788 N          15.7685   10.2332   35.5049 N.pl3   1  UNL1        0.0000
   3789 O          16.5844   19.2979   31.2971 O.2     1  UNL1        0.0000
   3790 O           6.2959   15.6989   34.2406 O.3     1  UNL1        0.0000
   3791 O          13.6951   11.8188   35.9163 O.3     1  UNL1        0.0000
   3792 O           9.7759   24.1472   29.6432 O.3     1  UNL1        0.0000
   3793 O          10.6688   22.7883   31.2227 O.3     1  UNL1        0.0000
   3794 O          12.1266   12.0105   34.2986 O.3     1  UNL1        0.0000
   3795 O          18.1741   19.0309   29.7103 O.2     1  UNL1        0.0000
   3796 O           5.4461   17.0550   35.8450 O.3     1  UNL1        0.0000
   3797 O          15.5065   18.6843   28.7258 O.3     1  UNL1        0.0000
   3798 O           7.9819   16.2690   36.3302 O.3     1  UNL1        0.0000
   3799 O          16.3676   21.0024   29.1737 O.3     1  UNL1        0.0000
   3800 O           6.2936   14.4837   36.8302 O.3     1  UNL1        0.0000
   3801 O          11.0095   11.4380   36.8949 O.3     1  UNL1        0.0000
   3802 O          12.3192   23.3971   29.1298 O.3     1  UNL1        0.0000
   3803 O          11.8815   13.7319   36.4286 O.3     1  UNL1        0.0000
   3804 O          10.6723   21.5822   28.6194 O.3     1  UNL1        0.0000
   3805 O          13.9249   19.3629   31.4649 O.3     1  UNL1        0.0000
   3806 O           7.5137   13.2527   34.1441 O.3     1  UNL1        0.0000
   3807 O          13.4162   10.6653   38.1826 O.3     1  UNL1        0.0000
   3808 O          11.0933   25.2816   27.3649 O.2     1  UNL1        0.0000
   3809 O          14.1208   13.4797   38.1769 O.2     1  UNL1        0.0000
   3810 O           8.9224   23.3692   27.3147 O.3     1  UNL1        0.0000
   3811 O           9.3788   11.9873   34.2117 O.3     1  UNL1        0.0000
   3812 O          11.9241   20.3948   31.3382 O.3     1  UNL1        0.0000
   3813 O          18.5490   20.7279   27.3039 O.2     1  UNL1        0.0000
   3814 O           4.6017   16.2642   38.1645 O.2     1  UNL1        0.0000
   3815 O          17.8500   17.9475   27.3338 O.3     1  UNL1        0.0000
   3816 O           6.8069   18.1244   38.2357 O.3     1  UNL1        0.0000
   3817 O          13.6190   21.0108   29.2402 O.3     1  UNL1        0.0000
   3818 O           9.2028   13.8391   36.2375 O.3     1  UNL1        0.0000
   3819 O          16.0978   19.8754   26.2921 O.3     1  UNL1        0.0000
   3820 O           7.1116   15.5775   39.2653 O.3     1  UNL1        0.0000
   3821 H          10.2136   19.5023   32.8691 H       1  UNL1        0.0000
   3822 H           9.3046   17.9456   34.6266 H       1  UNL1        0.0000
   3823 H          10.7613   16.1868   35.5766 H       1  UNL1        0.0000
   3824 H          14.0068   17.4794   33.0474 H       1  UNL1        0.0000
   3825 H          13.0968   15.9279   34.8039 H       1  UNL1        0.0000
   3826 C          11.1519   16.8554   34.8114 C.ar    1  UNL1        0.0000
   3827 C          10.8327   18.7178   33.2993 C.ar    1  UNL1        0.0000
   3828 C          12.9824   17.5732   33.4017 C.ar    1  UNL1        0.0000
   3829 C          12.4750   16.7120   34.3751 C.ar    1  UNL1        0.0000
   3830 C          10.3304   17.8539   34.2734 C.ar    1  UNL1        0.0000
   3831 C          12.1635   18.5826   32.8601 C.ar    1  UNL1        0.0000
   3832 H          15.0908   23.3446   30.0659 H      24  UNL24       0.0000
   3833 H          13.7814   25.2859   30.8709 H      24  UNL24       0.0000
   3834 H          17.3489   22.8852   30.9651 H      24  UNL24       0.0000
   3835 H          21.7907   12.4470   32.5990 H      24  UNL24       0.0000
   3836 H           2.3250   24.4180   32.6988 H      40  UNL40       0.0000
   3837 C          16.7911   23.7449   31.3332 C.2    24  UNL24       0.0000
   3838 C          22.3410   11.5806   32.2379 C.2    24  UNL24       0.0000
   3839 C          14.7738   25.1028   31.2792 C.3    24  UNL24       0.0000
   3840 C           1.3310   24.5948   32.2939 C.2    40  UNL40       0.0000
   3841 C          15.5112   24.0015   30.8257 C.2    24  UNL24       0.0000
   3842 C           7.6198   11.3305   32.7488 C.ar    1  UNL1        0.0000
   3843 H          13.7727   18.0237   36.7090 H      24  UNL24       0.0000
   3844 H          14.5969   18.0980   38.2909 H      24  UNL24       0.0000
   3845 H          14.9089   16.7403   37.1749 H      24  UNL24       0.0000
   3846 H          11.2022   18.3231   36.8265 H      24  UNL24       0.0000
   3847 H           9.4820   19.6607   38.5738 H      24  UNL24       0.0000
   3848 H          12.5803   15.8920   37.4639 H      24  UNL24       0.0000
   3849 H          13.3700   16.0274   39.0380 H      24  UNL24       0.0000
   3850 C          10.2751   18.9465   38.7591 C.3    24  UNL24       0.0000
   3851 C          13.0150   16.6054   38.1774 C.3    24  UNL24       0.0000
   3852 C          11.1152   18.2856   37.9043 C.2    24  UNL24       0.0000
   3853 C          14.1388   17.4268   37.5540 C.3    24  UNL24       0.0000
   3854 N          11.9213   17.4669   38.6769 N.2    24  UNL24       0.0000
   3855 H          14.9863   26.3762   28.9369 H      24  UNL24       0.0000
   3856 H          13.6968   27.1343   27.9581 H      24  UNL24       0.0000
   3857 H          13.5251   25.4339   28.4830 H      24  UNL24       0.0000
   3858 H          16.3575   24.3630   27.7026 H      24  UNL24       0.0000
   3859 C          14.2350   26.2053   28.1606 C.3    24  UNL24       0.0000
   3860 C          15.9003   24.8685   26.8604 C.3    24  UNL24       0.0000
   3861 N          14.9020   25.7693   26.9294 N.pl3  24  UNL24       0.0000
@<TRIPOS>BOND
     1    49    59    1
     2  1765  1775    1
     3   478   488    1
     4  3481  3491    1
     5  3052  3062    1
     6  1336  1346    1
     7  2194  2204    1
     8  2623  2633    1
     9   907   917    1
    10  1343  1337    2
    11  1343  1377    1
    12    56    50    2
    13    56    90    1
    14  2630  2624    2
    15  2630  2664    1
    16  3059  3053    2
    17  3059  3093    1
    18   485   479    2
    19   485   519    1
    20  3488  3482    1
    21  3488  3522    1
    22  2201  2195    1
    23  2201  2235    1
    24  1772  1766    2
    25  1772  1806    1
    26   914   908    1
    27   914   948    1
    28   101    16    1
    29   101     2    1
    30  1388  1303    1
    31  1388  1289    1
    32  1817  1732    1
    33  1817  1718    1
    34  2246  2161    1
    35  2246  2147    1
    36  3104  3019    1
    37  3104  3005    1
    38  3533  3448    1
    39  3533  3434    1
    40  2675  2590    1
    41  2675  2576    1
    42   959   874    1
    43   959   860    1
    44   530   445    1
    45   530   431    1
    46   479   924    1
    47  2624  3069    1
    48  3053  3498    1
    49    50   495    1
    50  1766  2211    1
    51  1337  1782    1
    52  2716  2717    2
    53  2716  2714    1
    54  2287  2288    2
    55  2287  2285    1
    56   571   572    2
    57   571   569    1
    58   142   143    2
    59   142   140    1
    60  1858  1859    2
    61  1858  1856    1
    62  1000  1001    2
    63  1000   998    1
    64  1429  1430    2
    65  1429  1427    1
    66  3574  3575    2
    67  3574  3572    1
    68  3145  3146    2
    69  3145  3143    1
    70  1859  1857    1
    71  3575  3573    1
    72  3146  3144    1
    73   143   141    1
    74  2288  2286    1
    75  1430  1428    1
    76  2717  2715    1
    77  1001   999    1
    78   572   570    1
    79  2240  2147    1
    80  1811  1718    1
    81   953   860    1
    82    95     2    1
    83   524   431    1
    84  1382  1289    1
    85  2669  2576    1
    86  3098  3005    1
    87  3527  3434    1
    88  1808  1721    1
    89   521   434    1
    90    92     5    1
    91  1379  1292    1
    92  3524  3437    1
    93  3095  3008    1
    94  2666  2579    1
    95   950   863    1
    96  2237  2150    1
    97   919   922    2
    98  2635  2638    2
    99  2635  1299    1
   100    61    64    2
   101   490   493    2
   102  1777  1780    2
   103  1777   441    1
   104  2206  2209    2
   105  2206   870    1
   106  1348  1351    2
   107  1348    12    1
   108  3493  3496    2
   109  3493  2157    1
   110  3064  3067    2
   111  3064  1728    1
   112    97     2    1
   113  1813  1718    1
   114   955   860    1
   115  3529  3434    1
   116  1384  1289    1
   117  2671  2576    1
   118  3100  3005    1
   119   526   431    1
   120  2242  2147    1
   121  1806  1721    1
   122  3093  3008    1
   123    90     5    1
   124   519   434    1
   125  1377  1292    1
   126  3522  3437    1
   127  2664  2579    1
   128  2235  2150    1
   129   948   863    1
   130  3496  3446    1
   131  3067  3017    1
   132  2638  2588    1
   133    64    14    1
   134  1351  1301    1
   135  2209  2159    1
   136   493   443    1
   137   922   872    1
   138  1780  1730    1
   139    59    66    2
   140    59    10    1
   141  2204  2211    2
   142  2204  2155    1
   143  1775  1782    2
   144  1775  1726    1
   145  1346  1353    2
   146  1346  1297    1
   147  2633  2640    2
   148  2633  2584    1
   149   488   495    2
   150   488   439    1
   151  3491  3498    2
   152  3491  3442    1
   153  3062  3069    2
   154  3062  3013    1
   155   917   924    2
   156   917   868    1
   157    66    67    1
   158  2211  2212    1
   159   495   496    1
   160   924   925    1
   161  3069  3070    1
   162  3498  3499    1
   163  2640  2641    1
   164  1353  1354    1
   165  1782  1783    1
   166  1854  1857    1
   167   996   999    1
   168  3570  3573    1
   169  2712  2715    1
   170  2283  2286    1
   171   567   570    1
   172  3141  3144    1
   173  1425  1428    1
   174   138   141    1
   175  3008  3089    1
   176  3008  3087    1
   177  3008  3077    1
   178   434   515    1
   179   434   513    1
   180   434   503    1
   181  2579  2660    1
   182  2579  2658    1
   183  2579  2648    1
   184     5    86    1
   185     5    84    1
   186     5    74    1
   187  2150  2231    1
   188  2150  2229    1
   189  2150  2219    1
   190  1721  1802    1
   191  1721  1800    1
   192  1721  1790    1
   193  1292  1373    1
   194  1292  1371    1
   195  1292  1361    1
   196  3437  3518    1
   197  3437  3516    1
   198  3437  3506    1
   199   863   944    1
   200   863   942    1
   201   863   932    1
   202  1718  1795    1
   203  1718  1797    1
   204  1718  1793    1
   205  3434  3511    1
   206  3434  3513    1
   207  3434  3509    1
   208  2576  2653    1
   209  2576  2655    1
   210  2576  2651    1
   211   431   508    1
   212   431   510    1
   213   431   506    1
   214  1289  1366    1
   215  1289  1368    1
   216  1289  1364    1
   217   860   937    1
   218   860   939    1
   219   860   935    1
   220     2    79    1
   221     2    81    1
   222     2    77    1
   223  2147  2224    1
   224  2147  2226    1
   225  2147  2222    1
   226  3005  3082    1
   227  3005  3084    1
   228  3005  3080    1
   229  1428  1426    1
   230  1428  1424    1
   231  3573  3571    1
   232  3573  3569    1
   233   141   139    1
   234   141   137    1
   235  3144  3142    1
   236  3144  3140    1
   237  1857  1855    1
   238  1857  1853    1
   239   570   568    1
   240   570   566    1
   241  2715  2713    1
   242  2715  2711    1
   243   999   997    1
   244   999   995    1
   245  2286  2284    1
   246  2286  2282    1
   247  3457  3531    1
   248  1312  1386    1
   249   454   528    1
   250   883   957    1
   251  2599  2673    1
   252  1741  1815    1
   253  2170  2244    1
   254  3028  3102    1
   255    25    99    1
   256  3089  3007    1
   257   944   862    1
   258  2231  2149    1
   259   515   433    1
   260  3518  3436    1
   261  1802  1720    1
   262  1373  1291    1
   263    86     4    1
   264  2660  2578    1
   265  2653  2582    1
   266    79     8    1
   267   937   866    1
   268  1795  1724    1
   269  3082  3011    1
   270  2224  2153    1
   271  3511  3440    1
   272  1366  1295    1
   273   508   437    1
   274   496    23    1
   275   496   453    1
   276  1783  1310    1
   277  1783  1740    1
   278  3499  3026    1
   279  3499  3456    1
   280  1354  1311    1
   281   925   452    1
   282   925   882    1
   283  2641  2598    1
   284    67    24    1
   285  2212  1739    1
   286  2212  2169    1
   287  3070  2597    1
   288  3070  3027    1
   289   513   433    1
   290  3516  3436    1
   291    84     4    1
   292  3087  3007    1
   293  1371  1291    1
   294  2658  2578    1
   295   942   862    1
   296  2229  2149    1
   297  1800  1720    1
   298   939   866    1
   299  2226  2153    1
   300  1368  1295    1
   301  2655  2582    1
   302  3084  3011    1
   303    81     8    1
   304  3513  3440    1
   305   510   437    1
   306  1797  1724    1
   307   528   437    1
   308  1386  1295    1
   309    99     8    1
   310   957   866    1
   311  2673  2582    1
   312  1815  1724    1
   313  3531  3440    1
   314  2244  2153    1
   315  3102  3011    1
   316  3506  3468    1
   317  3077  3039    1
   318   932   894    1
   319   503   465    1
   320  1790  1752    1
   321  2648  2610    1
   322    74    36    1
   323  2219  2181    1
   324  1361  1323    1
   325    77    33    1
   326  2651  2607    1
   327  1364  1320    1
   328  2222  2178    1
   329  3509  3465    1
   330   935   891    1
   331  3080  3036    1
   332   506   462    1
   333  1793  1749    1
   334  3436  3507    1
   335  3436  3526    1
   336  3007  3078    1
   337  3007  3097    1
   338  1720  1791    1
   339  1720  1810    1
   340     4    75    1
   341     4    94    1
   342   433   504    1
   343   433   523    1
   344  1291  1362    1
   345  1291  1381    1
   346  2578  2649    1
   347  2578  2668    1
   348   862   933    1
   349   862   952    1
   350  2149  2220    1
   351  2149  2239    1
   352  3011  3074    1
   353  3011  3090    1
   354   866   929    1
   355   866   945    1
   356   437   500    1
   357   437   516    1
   358     8    71    1
   359     8    87    1
   360  3440  3503    1
   361  3440  3519    1
   362  2153  2216    1
   363  2153  2232    1
   364  2582  2645    1
   365  2582  2661    1
   366  1295  1358    1
   367  1295  1374    1
   368  1724  1787    1
   369  1724  1803    1
   370  1830  1839    1
   371   114   123    1
   372   972   981    1
   373  1401  1410    1
   374  2688  2697    1
   375  3546  3555    1
   376  3117  3126    1
   377   543   552    1
   378  2259  2268    1
   379  3454  3476    1
   380   880   902    1
   381  2596  2618    1
   382  3025  3047    1
   383  2167  2189    1
   384    22    44    1
   385  1309  1331    1
   386  1738  1760    1
   387   451   473    1
   388   878   905    1
   389  1736  1763    1
   390  2594  2621    1
   391  1307  1334    1
   392    20    47    1
   393   449   476    1
   394  3023  3050    1
   395  2165  2192    1
   396  3452  3479    1
   397  1410  1408   ar
   398  1410  1406   ar
   399  3555  3553    1
   400  3555  3551    2
   401  2697  2695    1
   402  2697  2693    2
   403   552   550   ar
   404   552   548   ar
   405  2268  2266    2
   406  2268  2264    1
   407  1839  1837   ar
   408  1839  1835   ar
   409  3126  3124    1
   410  3126  3122    2
   411   123   121   ar
   412   123   119   ar
   413   981   979    2
   414   981   977    1
   415  2610  2649    1
   416  2610  2614    1
   417  3039  3078    1
   418  3039  3043    1
   419  2181  2220    1
   420  2181  2185    1
   421  1752  1791    1
   422  1752  1756    1
   423    36    75    1
   424    36    40    1
   425  1323  1362    1
   426  1323  1327    1
   427  3468  3507    1
   428  3468  3472    1
   429   465   504    1
   430   465   469    1
   431   894   933    1
   432   894   898    1
   433   544   550    1
   434  2260  2266    1
   435  3118  3124    1
   436   115   121    1
   437  1831  1837    1
   438   973   979    1
   439  2689  2695    1
   440  3547  3553    1
   441  1402  1408    1
   442  2607  2645    1
   443  2607  2611    2
   444  3036  3074    1
   445  3036  3040    2
   446  2178  2216    1
   447  2178  2182    1
   448    33    71    1
   449    33    37    1
   450   462   500    1
   451   462   466    1
   452   891   929    1
   453   891   895    1
   454  1320  1358    1
   455  1320  1324    1
   456  3465  3503    1
   457  3465  3469    2
   458  1749  1787    1
   459  1749  1753    1
   460   545   548    1
   461   116   119    1
   462  3548  3551    1
   463  2690  2693    1
   464  3119  3122    1
   465   974   977    1
   466  2261  2264    1
   467  1832  1835    1
   468  1403  1406    1
   469  1837  2265   ar
   470   550   978   ar
   471   121   549   ar
   472  2695  3123    2
   473  3124  3552    2
   474  1408  1836   ar
   475  1406  2696   ar
   476  2264  3554    2
   477   548  1838   ar
   478  1835  3125   ar
   479   119  1409   ar
   480   977  2267    2
   481  1381  1340    1
   482   952   911    1
   483    94    53    1
   484  1810  1769    1
   485  2668  2627    1
   486  3097  3056    1
   487   523   482    1
   488  2239  2198    1
   489  3526  3485    1
   490  3476  3472    1
   491   902   898    1
   492  1331  1327   ar
   493  1331  1762   ar
   494   473   469   ar
   495   473   904   ar
   496  2189  2185    1
   497  2618  2614   ar
   498  2618  3049   ar
   499  3047  3043   ar
   500  3047  3478   ar
   501  1760  1756   ar
   502  1760  2191   ar
   503    44    40   ar
   504    44   475   ar
   505  3050  3040    1
   506  2192  2182   ar
   507  2192  3474   ar
   508   476   466   ar
   509   476  1758   ar
   510   905   895   ar
   511   905  2187   ar
   512  3479  3469    1
   513    47    37   ar
   514    47  1329   ar
   515  1334  1324   ar
   516  1334  2616   ar
   517  2621  2611    1
   518  1763  1753   ar
   519  1763  3045   ar
   520    87    53    1
   521  3090  3056    1
   522  2661  2627    1
   523   945   911    1
   524  1803  1769    1
   525  2232  2198    1
   526  3519  3485    1
   527  1374  1340    1
   528   516   482    1
   529  3056  3116    1
   530  1340  1400    1
   531  2627  2687    1
   532  1769  1829    1
   533   482   542    1
   534  3485  3545    1
   535  2198  2258    1
   536   911   971    1
   537    53   113    1
   538  3043  3048   ar
   539  2185  2190    2
   540   898   903    2
   541  1327  1332   ar
   542  1756  1761   ar
   543  2614  2619   ar
   544   469   474   ar
   545    40    45   ar
   546  3472  3477    2
   547  3024  3045    1
   548  2166  2187    1
   549    21    42    1
   550  3453  3474    1
   551   450   471    1
   552  1737  1758    1
   553  2595  2616    1
   554   879   900    1
   555  1308  1329    1
   556   466   470   ar
   557  1753  1757   ar
   558   895   899   ar
   559  2182  2186   ar
   560  3469  3473    1
   561  3040  3044    1
   562  2611  2615    1
   563    37    41   ar
   564  1324  1328   ar
   565  1304  1333    1
   566  1733  1762    1
   567  2591  2620    1
   568  2162  2191    1
   569    17    46    1
   570   446   475    1
   571   875   904    1
   572  3449  3478    1
   573  3020  3049    1
   574  1836  1833    1
   575  1836  3127   ar
   576   549   546    1
   577   549  1840   ar
   578  2694  2691    1
   579   120   117    1
   580   120  1411    1
   581   978   975    1
   582   978  2269   ar
   583  3552  3549    1
   584  2265  2262    1
   585  2265  3556   ar
   586  3123  3120    1
   587  1407  1404    1
   588  1407  2698    1
   589  3474  3470   ar
   590   900   896    1
   591  1329  1325   ar
   592  2187  2183   ar
   593   471   467    1
   594  2616  2612   ar
   595  3045  3041   ar
   596    42    38    1
   597  1758  1754   ar
   598  2696  2692    1
   599  2696  3127   ar
   600  3125  3121    1
   601  3125  3556   ar
   602  3554  3550    1
   603   980   976    1
   604  1409  1405    1
   605  1409  1840   ar
   606  1838  1834    1
   607  1838  2269   ar
   608  2267  2263    1
   609   122   118    1
   610   122   553    1
   611   551   547    1
   612   551   982    1
   613  1333  1326    1
   614  2191  2184   ar
   615   475   468   ar
   616  2620  2613    1
   617    46    39    1
   618  1762  1755   ar
   619  3478  3471   ar
   620   904   897   ar
   621  3049  3042   ar
   622   553   483    2
   623   982   912    2
   624  2269  2199    1
   625  3127  3057    1
   626  3556  3486    1
   627  2698  2628    2
   628   124    54    1
   629  1840  1770    1
   630  1411  1341    2
   631  1829  1825   ar
   632  1829  1826   ar
   633  3545  3541   ar
   634  3545  3542   ar
   635  3116  3112   ar
   636  3116  3113   ar
   637   542   538   ar
   638   542   539   ar
   639  1400  1396   ar
   640  1400  1397   ar
   641   113   109   ar
   642   113   110   ar
   643  2258  2254   ar
   644  2258  2255   ar
   645  2687  2683   ar
   646  2687  2684   ar
   647   971   967   ar
   648   971   968   ar
   649   961   967    1
   650  1819  1825    1
   651   103   109    1
   652  3535  3541    1
   653  1390  1396    1
   654  3106  3112    1
   655  2248  2254    1
   656   532   538    1
   657  2677  2683    1
   658  1393  1397    1
   659  1822  1826    1
   660  2251  2255    1
   661  2680  2684    1
   662  3109  3113    1
   663  3538  3542    1
   664   106   110    1
   665   535   539    1
   666   964   968    1
   667  3477  3450    1
   668  2619  2592    1
   669  2619  3046   ar
   670    45    18    1
   671    45   472   ar
   672  1761  1734    1
   673  1761  2188   ar
   674   903   876    1
   675  1332  1305    1
   676  1332  1759   ar
   677   474   447    1
   678   474   901   ar
   679  2190  2163    1
   680  3048  3021    1
   681  3048  3475   ar
   682    30    69    1
   683  1746  1785    1
   684  2175  2214    1
   685  2604  2643    1
   686  1317  1356    1
   687  3033  3072    1
   688   459   498    1
   689  3462  3501    1
   690   888   927    1
   691  2254  2257   ar
   692   967   970   ar
   693  2683  2686   ar
   694   538   541   ar
   695  1825  1828   ar
   696  3112  3115   ar
   697  1396  1399   ar
   698  3541  3544   ar
   699   109   112   ar
   700   899   927    1
   701   899  2193   ar
   702  2615  2643    1
   703  1757  1785    1
   704  1757  3051   ar
   705  3473  3501    1
   706  1328  1356    1
   707  1328  2622   ar
   708  2186  2214    1
   709  2186  3480   ar
   710   470   498    1
   711   470  1764   ar
   712  3044  3072    1
   713    41    69    1
   714    41  1335   ar
   715  1826  1827   ar
   716  2255  2256   ar
   717   110   111   ar
   718  2684  2685   ar
   719   539   540   ar
   720  1397  1398   ar
   721  3542  3543   ar
   722  3113  3114   ar
   723   968   969   ar
   724  2183  2193   ar
   725  2183  2179    1
   726  3041  3051   ar
   727  3041  3037    1
   728    38    48    2
   729    38    34    1
   730  3470  3480   ar
   731  3470  3466    1
   732   467   477    2
   733   467   463    1
   734  1754  1764   ar
   735  1754  1750    1
   736   896   906    2
   737   896   892    1
   738  2612  2622   ar
   739  2612  2608    1
   740  1325  1335   ar
   741  1325  1321    1
   742  1755  1759   ar
   743  1755  1751    1
   744  3471  3475   ar
   745  3471  3467    1
   746  3042  3046   ar
   747  3042  3038    1
   748  2184  2188   ar
   749  2184  2180    1
   750    39    43    2
   751    39    35    1
   752   897   901   ar
   753   897   893    1
   754  2613  2617    2
   755  2613  2609    1
   756  1326  1330    2
   757  1326  1322    1
   758   468   472   ar
   759   468   464    1
   760  1341  1375    1
   761  1341  1380    1
   762   912   946    1
   763   912   951    1
   764    54    88    1
   765    54    93    1
   766   483   517    1
   767   483   522    1
   768  1770  1804    1
   769  1770  1809    1
   770  3486  3520    1
   771  3486  3525    1
   772  2199  2233    1
   773  2199  2238    1
   774  3057  3091    1
   775  3057  3096    1
   776  2628  2662    1
   777  2628  2667    1
   778  3072  3032    1
   779   927   887    1
   780  3501  3461    1
   781  1785  1745    1
   782   498   458    1
   783  2214  2174    1
   784  2643  2603    1
   785  1356  1316    1
   786    69    29    1
   787   946   865    1
   788  2662  2581    1
   789  1375  1294    1
   790  2233  2152    1
   791  3091  3010    1
   792  1804  1723    1
   793  3520  3439    1
   794    88     7    1
   795   517   436    1
   796   906   877    1
   797  2622  2593    1
   798  3051  3022    1
   799  2193  2164    1
   800  1764  1735    1
   801    48    19    1
   802  3480  3451    1
   803   477   448    1
   804  1335  1306    1
   805  3475  3502    1
   806  1330  1357    1
   807   472   499    1
   808    43    70    1
   809  2617  2644    1
   810  1759  1786    1
   811  2188  2215    1
   812   901   928    1
   813  3046  3073    1
   814    93     3    1
   815  2238  2148    1
   816  1809  1719    1
   817  3096  3006    1
   818   951   861    1
   819   522   432    1
   820  1380  1290    1
   821  3525  3435    1
   822  2667  2577    1
   823  1359  1321    1
   824  1359  1294    1
   825   930   892    1
   826   930   865    1
   827   501   463    1
   828   501   436    1
   829  3075  3037    1
   830  3075  3010    1
   831  2646  2608    1
   832  2646  2581    1
   833  3504  3466    1
   834  3504  3439    1
   835    72    34    1
   836    72     7    1
   837  1788  1750    1
   838  1788  1723    1
   839  2217  2179    1
   840  2217  2152    1
   841  3115  3107    1
   842  3115  3111   ar
   843  1828  1820    1
   844  1828  1824   ar
   845   970   962    1
   846   970   966   ar
   847  2686  2678    1
   848  2686  2682   ar
   849  3544  3536    1
   850  3544  3540   ar
   851   541   533    1
   852   541   537   ar
   853  1399  1391    1
   854  1399  1395   ar
   855   112   104    1
   856   112   108   ar
   857  2257  2249    1
   858  2257  2253   ar
   859  3079  3038    1
   860  3079  3006    1
   861  2221  2180    1
   862  2221  2148    1
   863   934   893    1
   864   934   861    1
   865  1363  1322    1
   866  1363  1290    1
   867    76    35    1
   868    76     3    1
   869  2650  2609    1
   870  2650  2577    1
   871  3508  3467    1
   872  3508  3435    1
   873  1792  1751    1
   874  1792  1719    1
   875   505   464    1
   876   505   432    1
   877  1827  1823    1
   878  1827  1824   ar
   879   540   536    1
   880   540   537   ar
   881  1398  1394    1
   882  1398  1395   ar
   883   111   107    1
   884   111   108   ar
   885  3543  3539    1
   886  3543  3540   ar
   887  2256  2252    1
   888  2256  2253   ar
   889  2685  2681    1
   890  2685  2682   ar
   891  3114  3110    1
   892  3114  3111   ar
   893   969   965    1
   894   969   966   ar
   895   463   507    1
   896  1321  1365    1
   897  2179  2223    1
   898  3037  3081    1
   899    34    78    1
   900  3466  3510    1
   901   892   936    1
   902  2608  2652    1
   903  1750  1794    1
   904  1751  1789    1
   905  2609  2647    1
   906  3038  3076    1
   907   464   502    1
   908  1322  1360    1
   909  3467  3505    1
   910  2180  2218    1
   911    35    73    1
   912   893   931    1
   913  3540  3537    1
   914   108   105    1
   915  2253  2250    1
   916   966   963    1
   917  2682  2679    1
   918  1395  1392    1
   919  3111  3108    1
   920   537   534    1
   921  1824  1821    1
   922  2644  2605    1
   923  2644  2606    1
   924  1357  1318    1
   925  1357  1319    1
   926  3073  3034    1
   927  3073  3035    1
   928    70    31    1
   929    70    32    1
   930   928   889    1
   931   928   890    1
   932  2215  2176    1
   933  2215  2177    1
   934  1786  1747    1
   935  1786  1748    1
   936  3502  3463    1
   937  3502  3464    1
   938   499   460    1
   939   499   461    1
   940  3010  3103    1
   941  3010  3083    1
   942  3010  3085    1
   943     7   100    1
   944     7    80    1
   945     7    82    1
   946  3439  3532    1
   947  3439  3512    1
   948  3439  3514    1
   949   436   529    1
   950   436   509    1
   951   436   511    1
   952  2581  2674    1
   953  2581  2654    1
   954  2581  2656    1
   955   865   958    1
   956   865   938    1
   957   865   940    1
   958  1723  1816    1
   959  1723  1796    1
   960  1723  1798    1
   961  2152  2245    1
   962  2152  2225    1
   963  2152  2227    1
   964  1294  1387    1
   965  1294  1367    1
   966  1294  1369    1
   967   432   514    1
   968   432   512    1
   969  2148  2230    1
   970  2148  2228    1
   971  1719  1801    1
   972  1719  1799    1
   973  3435  3517    1
   974  3435  3515    1
   975     3    85    1
   976     3    83    1
   977  2577  2659    1
   978  2577  2657    1
   979  1290  1372    1
   980  1290  1370    1
   981  3006  3088    1
   982  3006  3086    1
   983   861   943    1
   984   861   941    1
   985  3081  3004    1
   986   936   859    1
   987  2652  2575    1
   988   507   430    1
   989  1365  1288    1
   990  2223  2146    1
   991    78     1    1
   992  1794  1717    1
   993  3510  3433    1
   994  1360  1293    1
   995  2218  2151    1
   996   931   864    1
   997  3505  3438    1
   998  2647  2580    1
   999  3076  3009    1
  1000   502   435    1
  1001  1789  1722    1
  1002    73     6    1
  1003    27    68    1
  1004  2601  2642    1
  1005   456   497    1
  1006  3030  3071    1
  1007  1743  1784    1
  1008  3459  3500    1
  1009   885   926    1
  1010  2172  2213    1
  1011  1314  1355    1
  1012  1816  1742    1
  1013  2674  2600    1
  1014   529   455    1
  1015  3103  3029    1
  1016   100    26    1
  1017  3532  3458    1
  1018   958   884    1
  1019  2245  2171    1
  1020  1387  1313    1
  1021   938   859    1
  1022  2225  2146    1
  1023    80     1    1
  1024  3512  3433    1
  1025  1367  1288    1
  1026   509   430    1
  1027  1796  1717    1
  1028  3083  3004    1
  1029  2654  2575    1
  1030  2230  2151    1
  1031    85     6    1
  1032   514   435    1
  1033  3517  3438    1
  1034  3088  3009    1
  1035  2659  2580    1
  1036  1801  1722    1
  1037  1372  1293    1
  1038   943   864    1
  1039  2173  2213    1
  1040  3031  3071    1
  1041  1315  1355    1
  1042   886   926    1
  1043  2602  2642    1
  1044   457   497    1
  1045    28    68    1
  1046  1744  1784    1
  1047  3460  3500    1
  1048   125   135    1
  1049   554   564    1
  1050   983   993    1
  1051  3557  3567    1
  1052  2270  2280    1
  1053  1412  1422    1
  1054  3128  3138    1
  1055  2699  2709    1
  1056  1841  1851    1
  1057  2642  2637    1
  1058   926   921    1
  1059    68    63    1
  1060  2213  2208    1
  1061   497   492    1
  1062  1784  1779    1
  1063  3071  3066    1
  1064  3500  3495    1
  1065  1355  1350    1
  1066  3131  3137    1
  1067  3560  3566    1
  1068   986   992    1
  1069  2702  2708    1
  1070  2273  2279    1
  1071  1415  1421    1
  1072   557   563    1
  1073  1844  1850    1
  1074   128   134    1
  1075  1798  1717    1
  1076  3085  3004    1
  1077  1369  1288    1
  1078  2227  2146    1
  1079  2656  2575    1
  1080   511   430    1
  1081  3514  3433    1
  1082   940   859    1
  1083    82     1    1
  1084  1370  1293    1
  1085  2657  2580    1
  1086    83     6    1
  1087   941   864    1
  1088  1799  1722    1
  1089  3086  3009    1
  1090  2228  2151    1
  1091   512   435    1
  1092  3515  3438    1
  1093    11    62    1
  1094   440   491    1
  1095  3443  3494    1
  1096   869   920    1
  1097  3014  3065    1
  1098  1727  1778    1
  1099  1298  1349    1
  1100  2156  2207    1
  1101  2585  2636    1
  1102  3559  3567    1
  1103   127   135    1
  1104   556   564    1
  1105  1414  1422    1
  1106  3130  3138    1
  1107  2701  2709    1
  1108  1843  1851    1
  1109  2272  2280    1
  1110   985   993    1
  1111  3016  3068    1
  1112  2158  2210    1
  1113  3445  3497    1
  1114  1300  1352    1
  1115   442   494    1
  1116  1729  1781    1
  1117   871   923    1
  1118    13    65    1
  1119  2587  2639    1
  1120  1296  1347    1
  1121  3441  3492    1
  1122  3012  3063    1
  1123  1725  1776    1
  1124   438   489    1
  1125  2583  2634    1
  1126     9    60    1
  1127  2154  2205    1
  1128   867   918    1
  1129   559   562    1
  1130  3133  3136    1
  1131   988   991    1
  1132  3562  3565    1
  1133  1846  1849    1
  1134   130   133    1
  1135  2275  2278    1
  1136  2704  2707    1
  1137  1417  1420    1
  1138  1717  1812    1
  1139  1717  1814    1
  1140  2575  2670    1
  1141  2575  2672    1
  1142  3004  3099    1
  1143  3004  3101    1
  1144     1    96    1
  1145     1    98    1
  1146  1288  1383    1
  1147  1288  1385    1
  1148  2146  2241    1
  1149  2146  2243    1
  1150   430   525    1
  1151   430   527    1
  1152  3433  3528    1
  1153  3433  3530    1
  1154   859   954    1
  1155   859   956    1
  1156  3567  3565    1
  1157  3567  3558    1
  1158  2280  2278    1
  1159  2280  2271    1
  1160  3138  3136    1
  1161  3138  3129    1
  1162   135   133    1
  1163   135   126    1
  1164   993   991    1
  1165   993   984    1
  1166  1851  1849    1
  1167  1851  1842    1
  1168  2709  2707    1
  1169  2709  2700    1
  1170   564   562    1
  1171   564   555    1
  1172  1422  1420    1
  1173  1422  1413    1
  1174  1293  1378    1
  1175  1293  1376    1
  1176  1293  1531    1
  1177   435   520    1
  1178   435   518    1
  1179   435   673    1
  1180  2580  2665    1
  1181  2580  2663    1
  1182  2580  2818    1
  1183  3438  3523    1
  1184  3438  3521    1
  1185  3438  3676    1
  1186   864   949    1
  1187   864   947    1
  1188   864  1102    1
  1189  1722  1807    1
  1190  1722  1805    1
  1191  1722  1960    1
  1192     6    91    1
  1193     6    89    1
  1194     6   244    1
  1195  3009  3094    1
  1196  3009  3092    1
  1197  3009  3247    1
  1198  2151  2236    1
  1199  2151  2234    1
  1200  2151  2389    1
  1201   563   565    1
  1202   563   561    2
  1203  2279  2281    1
  1204  2279  2277    2
  1205   134   136    1
  1206   134   132    2
  1207  3137  3139    1
  1208  3137  3135    2
  1209  3566  3568    1
  1210  3566  3564    2
  1211  1421  1423    1
  1212  1421  1419    2
  1213   992   994    1
  1214   992   990    2
  1215  2708  2710    1
  1216  2708  2706    2
  1217  1850  1852    1
  1218  1850  1848    2
  1219  3066  3054    1
  1220  2637  2625    1
  1221  3495  3483    1
  1222  2208  3494   ar
  1223  2208  2196   ar
  1224   921  2207   ar
  1225   921   909   ar
  1226  1779  3065   ar
  1227  1779  1767   ar
  1228  1350  2636   ar
  1229  1350  1338   ar
  1230    63  1349   ar
  1231    63    51   ar
  1232   492  1778   ar
  1233   492   480   ar
  1234  1778  1768   ar
  1235   920   910    1
  1236  2636  2626   ar
  1237   491   481    1
  1238  1349  1339   ar
  1239  2207  2197   ar
  1240    62    52    1
  1241  3065  3055   ar
  1242  3494  3484   ar
  1243   494    60   ar
  1244   494   621   ar
  1245  2639  2766    1
  1246  3497  3063   ar
  1247  3497  3624   ar
  1248  1352  1479    1
  1249   923   489   ar
  1250   923  1050   ar
  1251  1781  1347   ar
  1252  1781  1908   ar
  1253  3068  2634   ar
  1254  3068  3195   ar
  1255  2210  1776   ar
  1256  2210  2337   ar
  1257    65   192    1
  1258  2670  2632    1
  1259    96    58    1
  1260  1812  1774    1
  1261   954   916    1
  1262  1383  1345    1
  1263  2241  2203    1
  1264  3528  3490    1
  1265  3099  3061    1
  1266   525   487    1
  1267  3523  3489    1
  1268  1378  1344    1
  1269  2665  2631    1
  1270   949   915    1
  1271  2236  2202    1
  1272   520   486    1
  1273    91    57    1
  1274  1807  1773    1
  1275  3094  3060    1
  1276  2707  2710    1
  1277  2707  2705    1
  1278  3565  3568    1
  1279  3565  3563    1
  1280  1849  1852    1
  1281  1849  1847    1
  1282   562   565    1
  1283   562   560    1
  1284   991   994    1
  1285   991   989    1
  1286   133   136    1
  1287   133   131    1
  1288  2278  2281    1
  1289  2278  2276    1
  1290  3136  3139    1
  1291  3136  3134    1
  1292  1420  1423    1
  1293  1420  1418    1
  1294  1805  1771    1
  1295    89    55    1
  1296   947   913    1
  1297  2663  2629    1
  1298  1376  1342    1
  1299  3521  3487    1
  1300  2234  2200    1
  1301  3092  3058    1
  1302   518   484    1
  1303    60   193   ar
  1304  1347  1480   ar
  1305  3492  3625    1
  1306   918  1051    1
  1307   489   622   ar
  1308  2205  2338    1
  1309  1776  1909   ar
  1310  2634  2767   ar
  1311  3063  3196   ar
  1312  1385  1486    1
  1313  1814  1915    1
  1314   956  1057    1
  1315  2243  2344    1
  1316  3101  3202    1
  1317  2672  2773    1
  1318   527   628    1
  1319    98   199    1
  1320  3530  3631    1
  1321  3561  3564    1
  1322  1845  1848    1
  1323  3132  3135    1
  1324  2274  2277    1
  1325   558   561    1
  1326   987   990    1
  1327   129   132    1
  1328  1416  1419    1
  1329  2703  2706    1
  1330  1852  2001    1
  1331  2281  2430    1
  1332  2710  2859    1
  1333  3139  3288    1
  1334  1423  1572    1
  1335  3568  3717    1
  1336   136   285    1
  1337   994  1143    1
  1338   565   714    1
  1339  2706  2860    1
  1340  1419  1573    1
  1341  3564  3718    1
  1342  1848  2002    1
  1343  3135  3289    1
  1344   561   715    1
  1345  2277  2431    1
  1346   990  1144    1
  1347   132   286    1
  1348  2589  2676    1
  1349   873   960    1
  1350  2160  2247    1
  1351  1731  1818    1
  1352  3018  3105    1
  1353   444   531    1
  1354  3447  3534    1
  1355    15   102    1
  1356  1302  1389    1
  1357  3483  3489    2
  1358   909   915    1
  1359   909  2349   ar
  1360  1338  1344    1
  1361  1338  2778   ar
  1362  3054  3060    2
  1363  2625  2631    2
  1364  2196  2202    1
  1365  2196  3636   ar
  1366   480   486    1
  1367   480  1920   ar
  1368    51    57    1
  1369    51  1491   ar
  1370  1767  1773    1
  1371  1767  3207   ar
  1372  2631  2812    1
  1373  3489  3670    1
  1374  1344  1525    1
  1375  3060  3241    1
  1376   915  1096    1
  1377    57   238    1
  1378  2202  2383    1
  1379   486   667    1
  1380  1773  1954    1
  1381  2676  2722    1
  1382   531   577    1
  1383  2247  2293    1
  1384   960  1006    1
  1385  3105  3151    1
  1386  1818  1864    1
  1387   102   148    1
  1388  3534  3580    1
  1389  1389  1435    1
  1390  2626  2632    1
  1391  2626  2781   ar
  1392  3484  3490    1
  1393  3484  3639   ar
  1394  1768  1774    1
  1395  1768  1923   ar
  1396   910   916    2
  1397   910  1065    1
  1398  1339  1345    1
  1399  1339  1494   ar
  1400    52    58    2
  1401    52   207    1
  1402   481   487    2
  1403   481   636    1
  1404  2197  2203    1
  1405  2197  2352   ar
  1406  3055  3061    1
  1407  3055  3210   ar
  1408  3061  3238    1
  1409  2203  2380    1
  1410  2632  2809    1
  1411   916  1093    1
  1412  3490  3667    1
  1413  1345  1522    1
  1414  1774  1951    1
  1415    58   235    1
  1416   487   664    1
  1417  3487  3624    1
  1418  3487  3672    1
  1419    55   192    2
  1420    55   240    1
  1421   913  1050    1
  1422   913  1098    1
  1423  1771  1908    1
  1424  1771  1956    1
  1425  2200  2337    1
  1426  2200  2385    1
  1427   484   621    1
  1428   484   669    1
  1429  3058  3195    1
  1430  3058  3243    1
  1431  2629  2766    2
  1432  2629  2814    1
  1433  1342  1479    2
  1434  1342  1527    1
  1435  3624  3634   ar
  1436  2766  2776    1
  1437  1479  1489    1
  1438  1050  1060   ar
  1439   192   202    1
  1440  2337  2347   ar
  1441  1908  1918   ar
  1442   621   631   ar
  1443  3195  3205   ar
  1444  1915  1909    1
  1445  1915  1949    1
  1446  2773  2767    1
  1447  2773  2807    1
  1448   199   193    1
  1449   199   233    1
  1450  3631  3625    2
  1451  3631  3665    1
  1452  1057  1051    2
  1453  1057  1091    1
  1454  3202  3196    1
  1455  3202  3236    1
  1456   628   622    1
  1457   628   662    1
  1458  2344  2338    2
  1459  2344  2378    1
  1460  1486  1480    1
  1461  1486  1520    1
  1462   673   588    1
  1463  3676  3591    1
  1464  1102  1017    1
  1465  3247  3162    1
  1466  1531  1446    1
  1467  2818  2733    1
  1468  2389  2304    1
  1469  1960  1875    1
  1470   244   159    1
  1471  1480  1925   ar
  1472  3196  3641   ar
  1473  2767  3212   ar
  1474  1909  2354   ar
  1475   622  1067   ar
  1476   193   638   ar
  1477  2001  2002    1
  1478  2001  1999    1
  1479  3717  3718    1
  1480  3717  3715    1
  1481  1572  1573    1
  1482  1572  1570    1
  1483  3288  3289    1
  1484  3288  3286    1
  1485  2430  2431    1
  1486  2430  2428    1
  1487   714   715    1
  1488   714   712    1
  1489  1143  1144    1
  1490  1143  1141    1
  1491  2859  2860    1
  1492  2859  2857    1
  1493   285   286    1
  1494   285   283    1
  1495  1573  1571    1
  1496   715   713    1
  1497  1144  1142    1
  1498  3718  3716    1
  1499   286   284    1
  1500  2002  2000    1
  1501  2431  2429    1
  1502  3289  3287    1
  1503  2860  2858    1
  1504  2812  2719    1
  1505  1096  1003    1
  1506   667   574    1
  1507  3241  3148    1
  1508  1954  1861    1
  1509   238   145    1
  1510  2383  2290    1
  1511  3670  3577    1
  1512  1525  1432    1
  1513  2380  2293    1
  1514  3667  3580    1
  1515  2809  2722    1
  1516  1522  1435    1
  1517  1093  1006    1
  1518  1951  1864    1
  1519  3238  3151    1
  1520   664   577    1
  1521   235   148    1
  1522  2349  2352   ar
  1523  2349  1013    1
  1524  1062  1065    2
  1525  1920  1923   ar
  1526  1920   584    1
  1527   204   207    2
  1528  3636  3639   ar
  1529  3636  2300    1
  1530  2778  2781   ar
  1531  2778  1442    1
  1532  3207  3210   ar
  1533  3207  1871    1
  1534  1491  1494   ar
  1535  1491   155    1
  1536   633   636    2
  1537  3243  3148    1
  1538  2814  2719    1
  1539  1527  1432    1
  1540  1098  1003    1
  1541   240   145    1
  1542  2385  2290    1
  1543  3672  3577    1
  1544  1956  1861    1
  1545   669   574    1
  1546  1520  1435    1
  1547   662   577    1
  1548  3236  3151    1
  1549  1949  1864    1
  1550  1091  1006    1
  1551   233   148    1
  1552  3665  3580    1
  1553  2378  2293    1
  1554  2807  2722    1
  1555  1494  1444    1
  1556  1065  1015    1
  1557  3639  3589    1
  1558  1923  1873    1
  1559   207   157    1
  1560  2781  2731    1
  1561  2352  2302    1
  1562  3210  3160    1
  1563   636   586    1
  1564  2776  2783    2
  1565  2776  2727    1
  1566   202   209    2
  1567   202   153    1
  1568  3205  3212   ar
  1569  3205  3156    1
  1570  1489  1496    2
  1571  1489  1440    1
  1572  3634  3641   ar
  1573  3634  3585    1
  1574  1060  1067   ar
  1575  1060  1011    1
  1576  1918  1925   ar
  1577  1918  1869    1
  1578   631   638   ar
  1579   631   582    1
  1580  2347  2354   ar
  1581  2347  2298    1
  1582  3641  3642    1
  1583  3212  3213    1
  1584   638   639    1
  1585  1067  1068    1
  1586  1925  1926    1
  1587  2783  2784    1
  1588  1496  1497    1
  1589   209   210    1
  1590  2354  2355    1
  1591  3713  3716    1
  1592   281   284    1
  1593  1997  2000    1
  1594  3284  3287    1
  1595  2426  2429    1
  1596   710   713    1
  1597  1568  1571    1
  1598  1139  1142    1
  1599  2855  2858    1
  1600  3580  3661    1
  1601  3580  3659    1
  1602  3580  3649    1
  1603  1006  1087    1
  1604  1006  1085    1
  1605  1006  1075    1
  1606  1864  1945    1
  1607  1864  1943    1
  1608  1864  1933    1
  1609   148   229    1
  1610   148   227    1
  1611   148   217    1
  1612  1435  1516    1
  1613  1435  1514    1
  1614  1435  1504    1
  1615   577   658    1
  1616   577   656    1
  1617   577   646    1
  1618  3151  3232    1
  1619  3151  3230    1
  1620  3151  3220    1
  1621  2293  2374    1
  1622  2293  2372    1
  1623  2293  2362    1
  1624  2722  2803    1
  1625  2722  2801    1
  1626  2722  2791    1
  1627  2290  2367    1
  1628  2290  2369    1
  1629  2290  2365    1
  1630  2719  2796    1
  1631  2719  2798    1
  1632  2719  2794    1
  1633  1861  1938    1
  1634  1861  1940    1
  1635  1861  1936    1
  1636  3148  3225    1
  1637  3148  3227    1
  1638  3148  3223    1
  1639  3577  3654    1
  1640  3577  3656    1
  1641  3577  3652    1
  1642  1003  1080    1
  1643  1003  1082    1
  1644  1003  1078    1
  1645   145   222    1
  1646   145   224    1
  1647   145   220    1
  1648  1432  1509    1
  1649  1432  1511    1
  1650  1432  1507    1
  1651   574   651    1
  1652   574   653    1
  1653   574   649    1
  1654  2000  1998    1
  1655  2000  1996    1
  1656  3287  3285    1
  1657  3287  3283    1
  1658  1142  1140    1
  1659  1142  1138    1
  1660   284   282    1
  1661   284   280    1
  1662  3716  3714    1
  1663  3716  3712    1
  1664  1571  1569    1
  1665  1571  1567    1
  1666  2429  2427    1
  1667  2429  2425    1
  1668  2858  2856    1
  1669  2858  2854    1
  1670   713   711    1
  1671   713   709    1
  1672   597   671    1
  1673  3171  3245    1
  1674  3600  3674    1
  1675  1026  1100    1
  1676   168   242    1
  1677  2313  2387    1
  1678  1884  1958    1
  1679  2742  2816    1
  1680  1455  1529    1
  1681  2803  2721    1
  1682  1945  1863    1
  1683  2374  2292    1
  1684  3232  3150    1
  1685   658   576    1
  1686  3661  3579    1
  1687  1516  1434    1
  1688  1087  1005    1
  1689   229   147    1
  1690  3225  3154    1
  1691   222   151    1
  1692  1509  1438    1
  1693  2367  2296    1
  1694   651   580    1
  1695  1080  1009    1
  1696  2796  2725    1
  1697  3654  3583    1
  1698  1938  1867    1
  1699  1068   595    1
  1700  1068  1025    1
  1701  1497  1454    1
  1702   639   166    1
  1703   639   596    1
  1704  2784  2741    1
  1705  3642  3169    1
  1706  3642  3599    1
  1707   210   167    1
  1708  1926  1453    1
  1709  1926  1883    1
  1710  3213  2740    1
  1711  3213  3170    1
  1712  2355  1882    1
  1713  2355  2312    1
  1714  1514  1434    1
  1715  3230  3150    1
  1716  2801  2721    1
  1717  1943  1863    1
  1718   656   576    1
  1719   227   147    1
  1720  1085  1005    1
  1721  3659  3579    1
  1722  2372  2292    1
  1723  1940  1867    1
  1724  3227  3154    1
  1725  2798  2725    1
  1726   224   151    1
  1727  1082  1009    1
  1728  2369  2296    1
  1729  3656  3583    1
  1730  1511  1438    1
  1731   653   580    1
  1732  3674  3583    1
  1733  1100  1009    1
  1734   671   580    1
  1735  1958  1867    1
  1736  2387  2296    1
  1737  3245  3154    1
  1738   242   151    1
  1739  1529  1438    1
  1740  2816  2725    1
  1741  3220  3182    1
  1742   217   179    1
  1743  2362  2324    1
  1744  2791  2753    1
  1745  1933  1895    1
  1746   646   608    1
  1747  1504  1466    1
  1748  1075  1037    1
  1749  3649  3611    1
  1750   649   605    1
  1751  1936  1892    1
  1752  2365  2321    1
  1753   220   176    1
  1754  1507  1463    1
  1755  1078  1034    1
  1756  3652  3608    1
  1757  2794  2750    1
  1758  3223  3179    1
  1759   147   218    1
  1760   147   237    1
  1761  3579  3650    1
  1762  3579  3669    1
  1763  2721  2792    1
  1764  2721  2811    1
  1765  3150  3221    1
  1766  3150  3240    1
  1767  1863  1934    1
  1768  1863  1953    1
  1769  1005  1076    1
  1770  1005  1095    1
  1771  1434  1505    1
  1772  1434  1524    1
  1773   576   647    1
  1774   576   666    1
  1775  2292  2363    1
  1776  2292  2382    1
  1777  1867  1930    1
  1778  1867  1946    1
  1779  1438  1501    1
  1780  1438  1517    1
  1781   151   214    1
  1782   151   230    1
  1783   580   643    1
  1784   580   659    1
  1785  2725  2788    1
  1786  2725  2804    1
  1787  3583  3646    1
  1788  3583  3662    1
  1789  1009  1072    1
  1790  1009  1088    1
  1791  3154  3217    1
  1792  3154  3233    1
  1793  2296  2359    1
  1794  2296  2375    1
  1795  1544  1553    1
  1796  1115  1124    1
  1797  3260  3269    1
  1798  1973  1982    1
  1799  2831  2840    1
  1800  2402  2411    1
  1801  3689  3698    1
  1802   257   266    1
  1803   686   695    1
  1804  2739  2761    1
  1805  2310  2332    1
  1806  3597  3619    1
  1807  1452  1474    1
  1808   165   187    1
  1809   594   616    1
  1810  1881  1903    1
  1811  1023  1045    1
  1812  3168  3190    1
  1813   163   190    1
  1814  1879  1906    1
  1815  1021  1048    1
  1816  1450  1477    1
  1817   592   619    1
  1818  3595  3622    1
  1819  2737  2764    1
  1820  3166  3193    1
  1821  2308  2335    1
  1822  1124  1122    2
  1823  1124  1120    1
  1824  3698  3696    1
  1825  3698  3694    2
  1826   266   264   ar
  1827   266   262   ar
  1828  2840  2838    1
  1829  2840  2836    2
  1830  3269  3267    1
  1831  3269  3265    2
  1832   695   693   ar
  1833   695   691   ar
  1834  2411  2409    2
  1835  2411  2407    1
  1836  1982  1980   ar
  1837  1982  1978   ar
  1838  1553  1551   ar
  1839  1553  1549   ar
  1840  3182  3221    1
  1841  3182  3186    1
  1842   179   218    1
  1843   179   183    1
  1844  3611  3650    1
  1845  3611  3615    1
  1846  1466  1505    1
  1847  1466  1470    1
  1848  2324  2363    1
  1849  2324  2328    1
  1850   608   647    1
  1851   608   612    1
  1852  1037  1076    1
  1853  1037  1041    1
  1854  1895  1934    1
  1855  1895  1899    1
  1856  2753  2792    1
  1857  2753  2757    1
  1858   687   693    1
  1859  2832  2838    1
  1860   258   264    1
  1861  3261  3267    1
  1862  2403  2409    1
  1863  3690  3696    1
  1864  1974  1980    1
  1865  1116  1122    1
  1866  1545  1551    1
  1867   605   643    1
  1868   605   609    1
  1869   176   214    1
  1870   176   180    1
  1871  3608  3646    1
  1872  3608  3612    2
  1873  3179  3217    1
  1874  3179  3183    2
  1875  2321  2359    1
  1876  2321  2325    1
  1877  1463  1501    1
  1878  1463  1467    1
  1879  1034  1072    1
  1880  1034  1038    1
  1881  2750  2788    1
  1882  2750  2754    2
  1883  1892  1930    1
  1884  1892  1896    1
  1885   688   691    1
  1886  1117  1120    1
  1887  3262  3265    1
  1888  1975  1978    1
  1889  1546  1549    1
  1890   259   262    1
  1891  2404  2407    1
  1892  3691  3694    1
  1893  2833  2836    1
  1894  3267  3695    2
  1895  1551  1979   ar
  1896  1980  2408   ar
  1897   693  1121   ar
  1898   264   692   ar
  1899  2838  3266    2
  1900  1978  3268   ar
  1901   691  1981   ar
  1902  1120  2410    2
  1903   262  1552   ar
  1904  1549  2839   ar
  1905  2407  3697    2
  1906  2811  2770    1
  1907  1095  1054    1
  1908  2382  2341    1
  1909  1524  1483    1
  1910   237   196    1
  1911  3240  3199    1
  1912  1953  1912    1
  1913   666   625    1
  1914  3669  3628    1
  1915  1045  1041    1
  1916  2761  2757   ar
  1917  2761  3192   ar
  1918   187   183   ar
  1919   187   618   ar
  1920  1903  1899   ar
  1921  1903  2334   ar
  1922  3190  3186   ar
  1923  3190  3621   ar
  1924  2332  2328    1
  1925  1474  1470   ar
  1926  1474  1905   ar
  1927  3619  3615    1
  1928   616   612   ar
  1929   616  1047   ar
  1930  3622  3612    1
  1931  1477  1467   ar
  1932  1477  2759   ar
  1933  1048  1038   ar
  1934  1048  2330   ar
  1935   190   180   ar
  1936   190  1472   ar
  1937  2335  2325   ar
  1938  2335  3617   ar
  1939  3193  3183    1
  1940  2764  2754    1
  1941   619   609   ar
  1942   619  1901   ar
  1943  1906  1896   ar
  1944  1906  3188   ar
  1945  1088  1054    1
  1946   659   625    1
  1947  3233  3199    1
  1948  1946  1912    1
  1949  1517  1483    1
  1950  2804  2770    1
  1951  2375  2341    1
  1952   230   196    1
  1953  3662  3628    1
  1954  3199  3259    1
  1955  2341  2401    1
  1956   625   685    1
  1957  1912  1972    1
  1958  3628  3688    1
  1959  1054  1114    1
  1960   196   256    1
  1961  1483  1543    1
  1962  2770  2830    1
  1963   612   617   ar
  1964  1470  1475   ar
  1965  3615  3620    2
  1966   183   188   ar
  1967  2328  2333    2
  1968  1899  1904   ar
  1969  2757  2762   ar
  1970  1041  1046    2
  1971  3186  3191   ar
  1972   593   614    1
  1973  1022  1043    1
  1974  2309  2330    1
  1975  3596  3617    1
  1976   164   185    1
  1977  3167  3188    1
  1978  2738  2759    1
  1979  1451  1472    1
  1980  1880  1901    1
  1981  1467  1471   ar
  1982  2754  2758    1
  1983  1896  1900   ar
  1984   609   613   ar
  1985  1038  1042   ar
  1986  3612  3616    1
  1987  2325  2329   ar
  1988  3183  3187    1
  1989   180   184   ar
  1990   160   189    1
  1991  1447  1476    1
  1992  1876  1905    1
  1993  2305  2334    1
  1994  3163  3192    1
  1995  1018  1047    1
  1996  3592  3621    1
  1997  2734  2763    1
  1998   589   618    1
  1999  1979  1976    1
  2000  1979  3270   ar
  2001  3266  3263    1
  2002  2837  2834    1
  2003   263   260    1
  2004   263  1554    1
  2005  2408  2405    1
  2006  2408  3699   ar
  2007   692   689    1
  2008   692  1983   ar
  2009  1121  1118    1
  2010  1121  2412   ar
  2011  1550  1547    1
  2012  1550  2841    1
  2013  3695  3692    1
  2014  2330  2326   ar
  2015   614   610    1
  2016  2759  2755   ar
  2017   185   181    1
  2018  3188  3184   ar
  2019  1472  1468   ar
  2020  1901  1897   ar
  2021  1043  1039    1
  2022  3617  3613   ar
  2023  2410  2406    1
  2024  1552  1548    1
  2025  1552  1983   ar
  2026  1981  1977    1
  2027  1981  2412   ar
  2028   694   690    1
  2029   694  1125    1
  2030  3268  3264    1
  2031  3268  3699   ar
  2032  2839  2835    1
  2033  2839  3270   ar
  2034  3697  3693    1
  2035   265   261    1
  2036   265   696    1
  2037  1123  1119    1
  2038  2334  2327   ar
  2039  1047  1040   ar
  2040  3621  3614   ar
  2041  1905  1898   ar
  2042  2763  2756    1
  2043  1476  1469    1
  2044  3192  3185   ar
  2045   189   182    1
  2046   618   611   ar
  2047  1983  1913    1
  2048  1554  1484    2
  2049  3270  3200    1
  2050   267   197    1
  2051  2412  2342    1
  2052  2841  2771    2
  2053  1125  1055    2
  2054  3699  3629    1
  2055   696   626    2
  2056  1543  1539   ar
  2057  1543  1540   ar
  2058   256   252   ar
  2059   256   253   ar
  2060  1972  1968   ar
  2061  1972  1969   ar
  2062  3688  3684   ar
  2063  3688  3685   ar
  2064  2401  2397   ar
  2065  2401  2398   ar
  2066  2830  2826   ar
  2067  2830  2827   ar
  2068  1114  1110   ar
  2069  1114  1111   ar
  2070   685   681   ar
  2071   685   682   ar
  2072  3259  3255   ar
  2073  3259  3256   ar
  2074  3249  3255    1
  2075  2391  2397    1
  2076  1533  1539    1
  2077  2820  2826    1
  2078  1104  1110    1
  2079  1962  1968    1
  2080   675   681    1
  2081  3678  3684    1
  2082   246   252    1
  2083  1965  1969    1
  2084  3681  3685    1
  2085  1536  1540    1
  2086   249   253    1
  2087  2394  2398    1
  2088  2823  2827    1
  2089   678   682    1
  2090  3252  3256    1
  2091  1107  1111    1
  2092  3620  3593    1
  2093  1904  1877    1
  2094  1904  2331   ar
  2095  2333  2306    1
  2096  3191  3164    1
  2097  3191  3618   ar
  2098   617   590    1
  2099   617  1044   ar
  2100  1046  1019    1
  2101   188   161    1
  2102   188   615   ar
  2103  1475  1448    1
  2104  1475  1902   ar
  2105  2762  2735    1
  2106  2762  3189   ar
  2107   602   641    1
  2108  1889  1928    1
  2109  1460  1499    1
  2110  2747  2786    1
  2111   173   212    1
  2112  3176  3215    1
  2113  1031  1070    1
  2114  3605  3644    1
  2115  2318  2357    1
  2116  3255  3258   ar
  2117  3684  3687   ar
  2118  1968  1971   ar
  2119   252   255   ar
  2120  2826  2829   ar
  2121   681   684   ar
  2122  1539  1542   ar
  2123  1110  1113   ar
  2124  2397  2400   ar
  2125  2758  2786    1
  2126   184   212    1
  2127   184  1478   ar
  2128  3187  3215    1
  2129  1900  1928    1
  2130  1900  3194   ar
  2131  2329  2357    1
  2132  2329  3623   ar
  2133  1471  1499    1
  2134  1471  2765   ar
  2135  1042  1070    1
  2136  1042  2336   ar
  2137   613   641    1
  2138   613  1907   ar
  2139  3616  3644    1
  2140  2827  2828   ar
  2141  1969  1970   ar
  2142  3685  3686   ar
  2143  1111  1112   ar
  2144   682   683   ar
  2145   253   254   ar
  2146  3256  3257   ar
  2147  1540  1541   ar
  2148  2398  2399   ar
  2149  3613  3623   ar
  2150  3613  3609    1
  2151   610   620    2
  2152   610   606    1
  2153   181   191    2
  2154   181   177    1
  2155  2755  2765   ar
  2156  2755  2751    1
  2157  2326  2336   ar
  2158  2326  2322    1
  2159  1897  1907   ar
  2160  1897  1893    1
  2161  1468  1478   ar
  2162  1468  1464    1
  2163  3184  3194   ar
  2164  3184  3180    1
  2165  1039  1049    2
  2166  1039  1035    1
  2167  3185  3189   ar
  2168  3185  3181    1
  2169  3614  3618   ar
  2170  3614  3610    1
  2171  2756  2760    2
  2172  2756  2752    1
  2173  1898  1902   ar
  2174  1898  1894    1
  2175  1469  1473    2
  2176  1469  1465    1
  2177   611   615   ar
  2178   611   607    1
  2179   182   186    2
  2180   182   178    1
  2181  2327  2331   ar
  2182  2327  2323    1
  2183  1040  1044   ar
  2184  1040  1036    1
  2185  3629  3663    1
  2186  3629  3668    1
  2187  1913  1947    1
  2188  1913  1952    1
  2189  2342  2376    1
  2190  2342  2381    1
  2191   626   660    1
  2192   626   665    1
  2193  1055  1089    1
  2194  1055  1094    1
  2195  1484  1518    1
  2196  1484  1523    1
  2197  2771  2805    1
  2198  2771  2810    1
  2199  3200  3234    1
  2200  3200  3239    1
  2201   197   231    1
  2202   197   236    1
  2203  3644  3604    1
  2204  2786  2746    1
  2205   212   172    1
  2206   641   601    1
  2207  1499  1459    1
  2208  1070  1030    1
  2209  1928  1888    1
  2210  3215  3175    1
  2211  2357  2317    1
  2212  2805  2724    1
  2213   660   579    1
  2214  1089  1008    1
  2215  2376  2295    1
  2216  3234  3153    1
  2217  1518  1437    1
  2218   231   150    1
  2219  3663  3582    1
  2220  1947  1866    1
  2221  2765  2736    1
  2222  2336  2307    1
  2223  1907  1878    1
  2224   620   591    1
  2225  3194  3165    1
  2226  1478  1449    1
  2227   191   162    1
  2228  1049  1020    1
  2229  3623  3594    1
  2230  2760  2787    1
  2231  1473  1500    1
  2232   615   642    1
  2233  1902  1929    1
  2234   186   213    1
  2235  1044  1071    1
  2236  3618  3645    1
  2237  3189  3216    1
  2238  2331  2358    1
  2239  2810  2720    1
  2240  1094  1004    1
  2241  3239  3149    1
  2242   665   575    1
  2243  2381  2291    1
  2244  1523  1433    1
  2245  1952  1862    1
  2246  3668  3578    1
  2247   236   146    1
  2248  2360  2322    1
  2249  2360  2295    1
  2250  2789  2751    1
  2251  2789  2724    1
  2252  3218  3180    1
  2253  3218  3153    1
  2254  3647  3609    1
  2255  3647  3582    1
  2256  1931  1893    1
  2257  1931  1866    1
  2258  1073  1035    1
  2259  1073  1008    1
  2260   215   177    1
  2261   215   150    1
  2262   644   606    1
  2263   644   579    1
  2264  1502  1464    1
  2265  1502  1437    1
  2266   255   247    1
  2267   255   251   ar
  2268   684   676    1
  2269   684   680   ar
  2270  2829  2821    1
  2271  2829  2825   ar
  2272  3687  3679    1
  2273  3687  3683   ar
  2274  1113  1105    1
  2275  1113  1109   ar
  2276  3258  3250    1
  2277  3258  3254   ar
  2278  2400  2392    1
  2279  2400  2396   ar
  2280  1542  1534    1
  2281  1542  1538   ar
  2282  1971  1963    1
  2283  1971  1967   ar
  2284  1506  1465    1
  2285  1506  1433    1
  2286  3222  3181    1
  2287  3222  3149    1
  2288  1935  1894    1
  2289  1935  1862    1
  2290  2364  2323    1
  2291  2364  2291    1
  2292   219   178    1
  2293   219   146    1
  2294  1077  1036    1
  2295  1077  1004    1
  2296  3651  3610    1
  2297  3651  3578    1
  2298   648   607    1
  2299   648   575    1
  2300  2793  2752    1
  2301  2793  2720    1
  2302  1541  1537    1
  2303  1541  1538   ar
  2304  1970  1966    1
  2305  1970  1967   ar
  2306   254   250    1
  2307   254   251   ar
  2308   683   679    1
  2309   683   680   ar
  2310  2399  2395    1
  2311  2399  2396   ar
  2312  3686  3682    1
  2313  3686  3683   ar
  2314  1112  1108    1
  2315  1112  1109   ar
  2316  3257  3253    1
  2317  3257  3254   ar
  2318  2828  2824    1
  2319  2828  2825   ar
  2320  1893  1937    1
  2321  2322  2366    1
  2322   177   221    1
  2323  1035  1079    1
  2324   606   650    1
  2325  3609  3653    1
  2326  2751  2795    1
  2327  3180  3224    1
  2328  1464  1508    1
  2329  1465  1503    1
  2330  3181  3219    1
  2331   178   216    1
  2332  1894  1932    1
  2333   607   645    1
  2334  2752  2790    1
  2335  3610  3648    1
  2336  1036  1074    1
  2337  2323  2361    1
  2338   680   677    1
  2339   251   248    1
  2340  3683  3680    1
  2341  2396  2393    1
  2342  1109  1106    1
  2343  1967  1964    1
  2344  2825  2822    1
  2345  3254  3251    1
  2346  1538  1535    1
  2347  3645  3606    1
  2348  3645  3607    1
  2349   213   174    1
  2350   213   175    1
  2351  2787  2748    1
  2352  2787  2749    1
  2353   642   603    1
  2354   642   604    1
  2355  1071  1032    1
  2356  1071  1033    1
  2357  3216  3177    1
  2358  3216  3178    1
  2359  1500  1461    1
  2360  1500  1462    1
  2361  1929  1890    1
  2362  1929  1891    1
  2363  2358  2319    1
  2364  2358  2320    1
  2365   150   243    1
  2366   150   223    1
  2367   150   225    1
  2368  3153  3246    1
  2369  3153  3226    1
  2370  3153  3228    1
  2371  2295  2388    1
  2372  2295  2368    1
  2373  2295  2370    1
  2374  2724  2817    1
  2375  2724  2797    1
  2376  2724  2799    1
  2377  1008  1101    1
  2378  1008  1081    1
  2379  1008  1083    1
  2380  1866  1959    1
  2381  1866  1939    1
  2382  1866  1941    1
  2383   579   672    1
  2384   579   652    1
  2385   579   654    1
  2386  3582  3675    1
  2387  3582  3655    1
  2388  3582  3657    1
  2389  1437  1530    1
  2390  1437  1510    1
  2391  1437  1512    1
  2392  1862  1944    1
  2393  1862  1942    1
  2394  1004  1086    1
  2395  1004  1084    1
  2396  2291  2373    1
  2397  2291  2371    1
  2398   146   228    1
  2399   146   226    1
  2400  3149  3231    1
  2401  3149  3229    1
  2402  2720  2802    1
  2403  2720  2800    1
  2404  1433  1515    1
  2405  1433  1513    1
  2406   575   657    1
  2407   575   655    1
  2408  3578  3660    1
  2409  3578  3658    1
  2410  2366  2289    1
  2411  3224  3147    1
  2412  1937  1860    1
  2413  2795  2718    1
  2414  1508  1431    1
  2415   650   573    1
  2416  1079  1002    1
  2417  3653  3576    1
  2418   221   144    1
  2419  2790  2723    1
  2420   216   149    1
  2421  1932  1865    1
  2422  3219  3152    1
  2423  1503  1436    1
  2424  2361  2294    1
  2425   645   578    1
  2426  1074  1007    1
  2427  3648  3581    1
  2428  1886  1927    1
  2429  2744  2785    1
  2430   599   640    1
  2431   170   211    1
  2432  2315  2356    1
  2433  3602  3643    1
  2434  1457  1498    1
  2435  1028  1069    1
  2436  3173  3214    1
  2437  1530  1456    1
  2438   672   598    1
  2439  3675  3601    1
  2440  3246  3172    1
  2441  1959  1885    1
  2442  2388  2314    1
  2443  1101  1027    1
  2444  2817  2743    1
  2445   243   169    1
  2446  1081  1002    1
  2447   652   573    1
  2448  2797  2718    1
  2449  1939  1860    1
  2450   223   144    1
  2451  2368  2289    1
  2452  3655  3576    1
  2453  1510  1431    1
  2454  3226  3147    1
  2455  2802  2723    1
  2456  3660  3581    1
  2457  1086  1007    1
  2458  1515  1436    1
  2459   657   578    1
  2460  1944  1865    1
  2461   228   149    1
  2462  3231  3152    1
  2463  2373  2294    1
  2464  1029  1069    1
  2465  2316  2356    1
  2466  3174  3214    1
  2467  3603  3643    1
  2468  1458  1498    1
  2469  2745  2785    1
  2470   600   640    1
  2471   171   211    1
  2472  1887  1927    1
  2473   268   278    1
  2474  2413  2423    1
  2475  3700  3710    1
  2476  2842  2852    1
  2477  1555  1565    1
  2478  1126  1136    1
  2479  1984  1994    1
  2480  3271  3281    1
  2481   697   707    1
  2482  2785  2780    1
  2483  1498  1493    1
  2484  2356  2351    1
  2485  3214  3209    1
  2486  1927  1922    1
  2487   211   206    1
  2488   640   635    1
  2489  1069  1064    1
  2490  3643  3638    1
  2491  2845  2851    1
  2492  3274  3280    1
  2493  1129  1135    1
  2494   700   706    1
  2495   271   277    1
  2496  2416  2422    1
  2497  3703  3709    1
  2498  1558  1564    1
  2499  1987  1993    1
  2500  2370  2289    1
  2501  1941  1860    1
  2502  1512  1431    1
  2503  3228  3147    1
  2504   654   573    1
  2505  3657  3576    1
  2506  2799  2718    1
  2507  1083  1002    1
  2508   225   144    1
  2509   655   578    1
  2510  1513  1436    1
  2511  3229  3152    1
  2512  3658  3581    1
  2513  2371  2294    1
  2514  1942  1865    1
  2515   226   149    1
  2516  1084  1007    1
  2517  2800  2723    1
  2518  3586  3637    1
  2519  1870  1921    1
  2520  1441  1492    1
  2521  1012  1063    1
  2522  3157  3208    1
  2523   583   634    1
  2524  2299  2350    1
  2525  2728  2779    1
  2526   154   205    1
  2527  3702  3710    1
  2528   270   278    1
  2529  3273  3281    1
  2530   699   707    1
  2531  2415  2423    1
  2532  2844  2852    1
  2533  1128  1136    1
  2534  1557  1565    1
  2535  1986  1994    1
  2536  2730  2782    1
  2537  1443  1495    1
  2538  1014  1066    1
  2539  2301  2353    1
  2540  1872  1924    1
  2541   585   637    1
  2542  3588  3640    1
  2543  3159  3211    1
  2544   156   208    1
  2545  3155  3206    1
  2546   152   203    1
  2547  1868  1919    1
  2548  2297  2348    1
  2549  1010  1061    1
  2550  3584  3635    1
  2551  2726  2777    1
  2552   581   632    1
  2553  1439  1490    1
  2554  1989  1992    1
  2555   702   705    1
  2556   273   276    1
  2557  2418  2421    1
  2558  1560  1563    1
  2559  2847  2850    1
  2560  1131  1134    1
  2561  3705  3708    1
  2562  3276  3279    1
  2563  1860  1955    1
  2564  1860  1957    1
  2565  2289  2384    1
  2566  2289  2386    1
  2567  1431  1526    1
  2568  1431  1528    1
  2569  3147  3242    1
  2570  3147  3244    1
  2571  1002  1097    1
  2572  1002  1099    1
  2573   573   668    1
  2574   573   670    1
  2575   144   239    1
  2576   144   241    1
  2577  2718  2813    1
  2578  2718  2815    1
  2579  3576  3671    1
  2580  3576  3673    1
  2581  3281  3279    1
  2582  3281  3272    1
  2583  3710  3708    1
  2584  3710  3701    1
  2585  1136  1134    1
  2586  1136  1127    1
  2587  2423  2421    1
  2588  2423  2414    1
  2589   707   705    1
  2590   707   698    1
  2591  1994  1992    1
  2592  1994  1985    1
  2593  1565  1563    1
  2594  1565  1556    1
  2595  2852  2850    1
  2596  2852  2843    1
  2597   278   276    1
  2598   278   269    1
  2599  3152  3237    1
  2600  3152  3235    1
  2601  3152  3390    1
  2602  2723  2808    1
  2603  2723  2806    1
  2604  2723  2961    1
  2605   149   234    1
  2606   149   232    1
  2607   149   387    1
  2608   578   663    1
  2609   578   661    1
  2610   578   816    1
  2611  1007  1092    1
  2612  1007  1090    1
  2613  1007  1245    1
  2614  1436  1521    1
  2615  1436  1519    1
  2616  1436  1674    1
  2617  2294  2379    1
  2618  2294  2377    1
  2619  2294  2532    1
  2620  1865  1950    1
  2621  1865  1948    1
  2622  1865  2103    1
  2623  3581  3666    1
  2624  3581  3664    1
  2625  3581  3819    1
  2626  3709  3711    1
  2627  3709  3707    2
  2628  2422  2424    1
  2629  2422  2420    2
  2630   706   708    1
  2631   706   704    2
  2632   277   279    1
  2633   277   275    2
  2634  1993  1995    1
  2635  1993  1991    2
  2636  2851  2853    1
  2637  2851  2849    2
  2638  1564  1566    1
  2639  1564  1562    2
  2640  3280  3282    1
  2641  3280  3278    2
  2642  1135  1137    1
  2643  1135  1133    2
  2644  2351  3637   ar
  2645  2351  2339   ar
  2646   206  1492   ar
  2647   206   194   ar
  2648  1493  2779   ar
  2649  1493  1481   ar
  2650   635  1921   ar
  2651   635   623   ar
  2652  2780  2768    1
  2653  1922  3208   ar
  2654  1922  1910   ar
  2655  3209  3197    1
  2656  1064  2350   ar
  2657  1064  1052   ar
  2658  3638  3626    1
  2659  1921  1911   ar
  2660  1492  1482   ar
  2661  2779  2769   ar
  2662  3208  3198   ar
  2663  2350  2340   ar
  2664   634   624    1
  2665   205   195    1
  2666  3637  3627   ar
  2667  1063  1053    1
  2668   637   203   ar
  2669   637   764   ar
  2670  3640  3206   ar
  2671  3640  3767   ar
  2672  1066   632   ar
  2673  1066  1193   ar
  2674  1495  1622    1
  2675  2353  1919   ar
  2676  2353  2480   ar
  2677   208   335    1
  2678  1924  1490   ar
  2679  1924  2051   ar
  2680  2782  2909    1
  2681  3211  2777   ar
  2682  3211  3338   ar
  2683   239   201    1
  2684  2813  2775    1
  2685  1097  1059    1
  2686  3242  3204    1
  2687  1526  1488    1
  2688  1955  1917    1
  2689   668   630    1
  2690  2384  2346    1
  2691  3671  3633    1
  2692  1092  1058    1
  2693   234   200    1
  2694  1521  1487    1
  2695   663   629    1
  2696  2808  2774    1
  2697  3237  3203    1
  2698  1950  1916    1
  2699  3666  3632    1
  2700  2379  2345    1
  2701  2850  2853    1
  2702  2850  2848    1
  2703  3279  3282    1
  2704  3279  3277    1
  2705  1563  1566    1
  2706  1563  1561    1
  2707  3708  3711    1
  2708  3708  3706    1
  2709  1992  1995    1
  2710  1992  1990    1
  2711   276   279    1
  2712   276   274    1
  2713   705   708    1
  2714   705   703    1
  2715  1134  1137    1
  2716  1134  1132    1
  2717  2421  2424    1
  2718  2421  2419    1
  2719  2806  2772    1
  2720  3235  3201    1
  2721  1090  1056    1
  2722   232   198    1
  2723   661   627    1
  2724  2377  2343    1
  2725  1948  1914    1
  2726  1519  1485    1
  2727  3664  3630    1
  2728  3635  3768    1
  2729  1490  1623   ar
  2730  2348  2481    1
  2731  1061  1194    1
  2732   632   765   ar
  2733  2777  2910   ar
  2734   203   336   ar
  2735  1919  2052   ar
  2736  3206  3339   ar
  2737  3244  3345    1
  2738   670   771    1
  2739  1099  1200    1
  2740  1528  1629    1
  2741  2815  2916    1
  2742   241   342    1
  2743  2386  2487    1
  2744  3673  3774    1
  2745  1957  2058    1
  2746  1988  1991    1
  2747  3275  3278    1
  2748  3704  3707    1
  2749  2846  2849    1
  2750  1130  1133    1
  2751  1559  1562    1
  2752   701   704    1
  2753  2417  2420    1
  2754   272   275    1
  2755  1566  1715    1
  2756  2424  2573    1
  2757  3282  3431    1
  2758  2853  3002    1
  2759   708   857    1
  2760  1995  2144    1
  2761   279   428    1
  2762  3711  3860    1
  2763  1137  1286    1
  2764  2849  3003    1
  2765  1562  1716    1
  2766  2420  2574    1
  2767  1991  2145    1
  2768  3278  3432    1
  2769   275   429    1
  2770   704   858    1
  2771  1133  1287    1
  2772  3707  3861    1
  2773  1016  1103    1
  2774  3590  3677    1
  2775  1445  1532    1
  2776  3161  3248    1
  2777  2732  2819    1
  2778  2303  2390    1
  2779   587   674    1
  2780   158   245    1
  2781  1874  1961    1
  2782  1052  1058    1
  2783  1052  2492   ar
  2784   194   200    1
  2785   194  1634   ar
  2786  2768  2774    2
  2787  2339  2345    1
  2788  2339  3779   ar
  2789  3197  3203    2
  2790  1910  1916    1
  2791  1910  3350   ar
  2792  1481  1487    1
  2793  1481  2921   ar
  2794  3626  3632    2
  2795   623   629    1
  2796   623  2063   ar
  2797   200   381    1
  2798  2345  2526    1
  2799  3632  3813    1
  2800  1916  2097    1
  2801  2774  2955    1
  2802   629   810    1
  2803  1487  1668    1
  2804  1058  1239    1
  2805  3203  3384    1
  2806  2390  2436    1
  2807  3677  3723    1
  2808   674   720    1
  2809  1103  1149    1
  2810  2819  2865    1
  2811  3248  3294    1
  2812   245   291    1
  2813  1961  2007    1
  2814  1532  1578    1
  2815  1053  1059    2
  2816  1053  1208    1
  2817   624   630    2
  2818   624   779    1
  2819  3198  3204    1
  2820  3198  3353   ar
  2821  3627  3633    1
  2822  3627  3782   ar
  2823  1911  1917    1
  2824  1911  2066   ar
  2825   195   201    2
  2826   195   350    1
  2827  1482  1488    1
  2828  1482  1637   ar
  2829  2340  2346    1
  2830  2340  2495   ar
  2831  2769  2775    1
  2832  2769  2924   ar
  2833  3204  3381    1
  2834   201   378    1
  2835  1917  2094    1
  2836  2346  2523    1
  2837  2775  2952    1
  2838  1488  1665    1
  2839  3633  3810    1
  2840  1059  1236    1
  2841   630   807    1
  2842  1056  1193    1
  2843  1056  1241    1
  2844  1485  1622    2
  2845  1485  1670    1
  2846  3630  3767    1
  2847  3630  3815    1
  2848  3201  3338    1
  2849  3201  3386    1
  2850  2772  2909    2
  2851  2772  2957    1
  2852  2343  2480    1
  2853  2343  2528    1
  2854  1914  2051    1
  2855  1914  2099    1
  2856   627   764    1
  2857   627   812    1
  2858   198   335    2
  2859   198   383    1
  2860   335   345    1
  2861  2480  2490   ar
  2862  1622  1632    1
  2863   764   774   ar
  2864  3767  3777   ar
  2865  1193  1203   ar
  2866  3338  3348   ar
  2867  2051  2061   ar
  2868  2909  2919    1
  2869  3774  3768    2
  2870  3774  3808    1
  2871   771   765    1
  2872   771   805    1
  2873  1629  1623    1
  2874  1629  1663    1
  2875  2916  2910    1
  2876  2916  2950    1
  2877  1200  1194    2
  2878  1200  1234    1
  2879  3345  3339    1
  2880  3345  3379    1
  2881   342   336    1
  2882   342   376    1
  2883  2058  2052    1
  2884  2058  2092    1
  2885  2487  2481    2
  2886  2487  2521    1
  2887  3390  3305    1
  2888  2103  2018    1
  2889   816   731    1
  2890  3819  3734    1
  2891  1674  1589    1
  2892  2532  2447    1
  2893  2961  2876    1
  2894  1245  1160    1
  2895   387   302    1
  2896  3339  3784   ar
  2897  2910  3355   ar
  2898  2052  2497   ar
  2899   336   781   ar
  2900   765  1210   ar
  2901  1623  2068   ar
  2902  1286  1287    1
  2903  1286  1284    1
  2904  2573  2574    1
  2905  2573  2571    1
  2906   857   858    1
  2907   857   855    1
  2908  3002  3003    1
  2909  3002  3000    1
  2910   428   429    1
  2911   428   426    1
  2912  3860  3861    1
  2913  3860  3858    1
  2914  2144  2145    1
  2915  2144  2142    1
  2916  1715  1716    1
  2917  1715  1713    1
  2918  3431  3432    1
  2919  3431  3429    1
  2920  1287  1285    1
  2921  3003  3001    1
  2922   858   856    1
  2923   429   427    1
  2924  3861  3859    1
  2925  3432  3430    1
  2926  2574  2572    1
  2927  2145  2143    1
  2928  1716  1714    1
  2929  3384  3291    1
  2930  2526  2433    1
  2931  1668  1575    1
  2932  1239  1146    1
  2933  2955  2862    1
  2934  3813  3720    1
  2935  2097  2004    1
  2936   381   288    1
  2937   810   717    1
  2938  2952  2865    1
  2939  2094  2007    1
  2940   807   720    1
  2941  3810  3723    1
  2942  1665  1578    1
  2943  3381  3294    1
  2944  1236  1149    1
  2945   378   291    1
  2946  2523  2436    1
  2947   776   779    2
  2948  1205  1208    2
  2949  3350  3353   ar
  2950  3350  2014    1
  2951  2492  2495   ar
  2952  2492  1156    1
  2953   347   350    2
  2954  2921  2924   ar
  2955  2921  1585    1
  2956  3779  3782   ar
  2957  3779  2443    1
  2958  2063  2066   ar
  2959  2063   727    1
  2960  1634  1637   ar
  2961  1634   298    1
  2962  1670  1575    1
  2963  3386  3291    1
  2964  2099  2004    1
  2965  2528  2433    1
  2966  3815  3720    1
  2967  2957  2862    1
  2968   383   288    1
  2969  1241  1146    1
  2970   812   717    1
  2971  2950  2865    1
  2972   805   720    1
  2973  2521  2436    1
  2974  1663  1578    1
  2975  1234  1149    1
  2976  3379  3294    1
  2977  3808  3723    1
  2978   376   291    1
  2979  2092  2007    1
  2980  3353  3303    1
  2981  2066  2016    1
  2982  2924  2874    1
  2983   779   729    1
  2984  1637  1587    1
  2985  2495  2445    1
  2986  1208  1158    1
  2987  3782  3732    1
  2988   350   300    1
  2989  2061  2068   ar
  2990  2061  2012    1
  2991  3348  3355   ar
  2992  3348  3299    1
  2993   774   781   ar
  2994   774   725    1
  2995  2490  2497   ar
  2996  2490  2441    1
  2997  1632  1639    2
  2998  1632  1583    1
  2999   345   352    2
  3000   345   296    1
  3001  1203  1210   ar
  3002  1203  1154    1
  3003  3777  3784   ar
  3004  3777  3728    1
  3005  2919  2926    2
  3006  2919  2870    1
  3007  3784  3785    1
  3008   781   782    1
  3009  1639  1640    1
  3010   352   353    1
  3011  2926  2927    1
  3012  2497  2498    1
  3013  3355  3356    1
  3014  1210  1211    1
  3015  2068  2069    1
  3016   424   427    1
  3017  1711  1714    1
  3018  3427  3430    1
  3019  2569  2572    1
  3020  1282  1285    1
  3021  3856  3859    1
  3022  2140  2143    1
  3023   853   856    1
  3024  2998  3001    1
  3025   720   801    1
  3026   720   799    1
  3027   720   789    1
  3028  3723  3804    1
  3029  3723  3802    1
  3030  3723  3792    1
  3031   291   372    1
  3032   291   370    1
  3033   291   360    1
  3034  1578  1659    1
  3035  1578  1657    1
  3036  1578  1647    1
  3037  2436  2517    1
  3038  2436  2515    1
  3039  2436  2505    1
  3040  3294  3375    1
  3041  3294  3373    1
  3042  3294  3363    1
  3043  1149  1230    1
  3044  1149  1228    1
  3045  1149  1218    1
  3046  2007  2088    1
  3047  2007  2086    1
  3048  2007  2076    1
  3049  2865  2946    1
  3050  2865  2944    1
  3051  2865  2934    1
  3052  1146  1223    1
  3053  1146  1225    1
  3054  1146  1221    1
  3055   717   794    1
  3056   717   796    1
  3057   717   792    1
  3058  3720  3797    1
  3059  3720  3799    1
  3060  3720  3795    1
  3061  2862  2939    1
  3062  2862  2941    1
  3063  2862  2937    1
  3064   288   365    1
  3065   288   367    1
  3066   288   363    1
  3067  1575  1652    1
  3068  1575  1654    1
  3069  1575  1650    1
  3070  2004  2081    1
  3071  2004  2083    1
  3072  2004  2079    1
  3073  3291  3368    1
  3074  3291  3370    1
  3075  3291  3366    1
  3076  2433  2510    1
  3077  2433  2512    1
  3078  2433  2508    1
  3079  3859  3857    1
  3080  3859  3855    1
  3081  2143  2141    1
  3082  2143  2139    1
  3083  2572  2570    1
  3084  2572  2568    1
  3085  3430  3428    1
  3086  3430  3426    1
  3087  1285  1283    1
  3088  1285  1281    1
  3089   856   854    1
  3090   856   852    1
  3091   427   425    1
  3092   427   423    1
  3093  3001  2999    1
  3094  3001  2997    1
  3095  1714  1712    1
  3096  1714  1710    1
  3097  3743  3817    1
  3098  2456  2530    1
  3099   740   814    1
  3100  2027  2101    1
  3101   311   385    1
  3102  1169  1243    1
  3103  3314  3388    1
  3104  1598  1672    1
  3105  2885  2959    1
  3106  2088  2006    1
  3107  1230  1148    1
  3108  2946  2864    1
  3109  1659  1577    1
  3110  3804  3722    1
  3111  2517  2435    1
  3112   801   719    1
  3113  3375  3293    1
  3114   372   290    1
  3115  1652  1581    1
  3116  3797  3726    1
  3117  2939  2868    1
  3118   365   294    1
  3119   794   723    1
  3120  1223  1152    1
  3121  2081  2010    1
  3122  2510  2439    1
  3123  3368  3297    1
  3124   353   310    1
  3125  2927  2884    1
  3126  3356  2883    1
  3127  3356  3313    1
  3128   782   309    1
  3129   782   739    1
  3130  2069  1596    1
  3131  2069  2026    1
  3132  1211   738    1
  3133  1211  1168    1
  3134  1640  1597    1
  3135  3785  3312    1
  3136  3785  3742    1
  3137  2498  2025    1
  3138  2498  2455    1
  3139   799   719    1
  3140  2086  2006    1
  3141  2515  2435    1
  3142  2944  2864    1
  3143  1657  1577    1
  3144  3802  3722    1
  3145  3373  3293    1
  3146  1228  1148    1
  3147   370   290    1
  3148   367   294    1
  3149  2512  2439    1
  3150  1654  1581    1
  3151  1225  1152    1
  3152  2083  2010    1
  3153  2941  2868    1
  3154   796   723    1
  3155  3799  3726    1
  3156  3370  3297    1
  3157  2101  2010    1
  3158  3388  3297    1
  3159   814   723    1
  3160  3817  3726    1
  3161  1243  1152    1
  3162   385   294    1
  3163  1672  1581    1
  3164  2959  2868    1
  3165  2530  2439    1
  3166   360   322    1
  3167  2076  2038    1
  3168  2934  2896    1
  3169  2505  2467    1
  3170   789   751    1
  3171  3363  3325    1
  3172  1218  1180    1
  3173  1647  1609    1
  3174  3792  3754    1
  3175  1221  1177    1
  3176  3795  3751    1
  3177   792   748    1
  3178  1650  1606    1
  3179  2079  2035    1
  3180  2508  2464    1
  3181   363   319    1
  3182  3366  3322    1
  3183  2937  2893    1
  3184  2864  2935    1
  3185  2864  2954    1
  3186  2006  2077    1
  3187  2006  2096    1
  3188  2435  2506    1
  3189  2435  2525    1
  3190  1577  1648    1
  3191  1577  1667    1
  3192  3293  3364    1
  3193  3293  3383    1
  3194  3722  3793    1
  3195  3722  3812    1
  3196  1148  1219    1
  3197  1148  1238    1
  3198   290   361    1
  3199   290   380    1
  3200   719   790    1
  3201   719   809    1
  3202  1152  1215    1
  3203  1152  1231    1
  3204  3726  3789    1
  3205  3726  3805    1
  3206  3297  3360    1
  3207  3297  3376    1
  3208  2439  2502    1
  3209  2439  2518    1
  3210  2010  2073    1
  3211  2010  2089    1
  3212  2868  2931    1
  3213  2868  2947    1
  3214   723   786    1
  3215   723   802    1
  3216  1581  1644    1
  3217  1581  1660    1
  3218   294   357    1
  3219   294   373    1
  3220   400   409    1
  3221  3403  3412    1
  3222  1258  1267    1
  3223  1687  1696    1
  3224  2116  2125    1
  3225  2974  2983    1
  3226  2545  2554    1
  3227   829   838    1
  3228  3832  3841    1
  3229  2024  2046    1
  3230  1595  1617    1
  3231  3740  3762    1
  3232  2453  2475    1
  3233   308   330    1
  3234  1166  1188    1
  3235   737   759    1
  3236  2882  2904    1
  3237  3311  3333    1
  3238  1593  1620    1
  3239  1164  1191    1
  3240  2451  2478    1
  3241   735   762    1
  3242  3309  3336    1
  3243  2022  2049    1
  3244   306   333    1
  3245  3738  3765    1
  3246  2880  2907    1
  3247  3841  3839    1
  3248  3841  3837    2
  3249  2983  2981    1
  3250  2983  2979    2
  3251  1267  1265    2
  3252  1267  1263    1
  3253  1696  1694   ar
  3254  1696  1692   ar
  3255   838   836   ar
  3256   838   834   ar
  3257  2554  2552    2
  3258  2554  2550    1
  3259   409   407   ar
  3260   409   405   ar
  3261  3412  3410    1
  3262  3412  3408    2
  3263  2125  2123   ar
  3264  2125  2121   ar
  3265  3754  3793    1
  3266  3754  3758    1
  3267  3325  3364    1
  3268  3325  3329    1
  3269  2896  2935    1
  3270  2896  2900    1
  3271   322   361    1
  3272   322   326    1
  3273   751   790    1
  3274   751   755    1
  3275  1180  1219    1
  3276  1180  1184    1
  3277  2467  2506    1
  3278  2467  2471    1
  3279  2038  2077    1
  3280  2038  2042    1
  3281  1609  1648    1
  3282  1609  1613    1
  3283  2975  2981    1
  3284  2117  2123    1
  3285  2546  2552    1
  3286  1259  1265    1
  3287  3833  3839    1
  3288  1688  1694    1
  3289   830   836    1
  3290  3404  3410    1
  3291   401   407    1
  3292  3322  3360    1
  3293  3322  3326    2
  3294   748   786    1
  3295   748   752    1
  3296  2464  2502    1
  3297  2464  2468    1
  3298  1177  1215    1
  3299  1177  1181    1
  3300  2893  2931    1
  3301  2893  2897    2
  3302  2035  2073    1
  3303  2035  2039    1
  3304  1606  1644    1
  3305  1606  1610    1
  3306  3751  3789    1
  3307  3751  3755    2
  3308   319   357    1
  3309   319   323    1
  3310  2118  2121    1
  3311   402   405    1
  3312  1260  1263    1
  3313  2976  2979    1
  3314  1689  1692    1
  3315  3834  3837    1
  3316   831   834    1
  3317  3405  3408    1
  3318  2547  2550    1
  3319  1694  2122   ar
  3320   407   835   ar
  3321   836  1264   ar
  3322  3410  3838    2
  3323  2981  3409    2
  3324  2123  2551   ar
  3325  1692  2982   ar
  3326   834  2124   ar
  3327  2121  3411   ar
  3328  1263  2553    2
  3329  2550  3840    2
  3330   405  1695   ar
  3331  2096  2055    1
  3332  3812  3771    1
  3333  1238  1197    1
  3334   809   768    1
  3335  1667  1626    1
  3336  3383  3342    1
  3337   380   339    1
  3338  2954  2913    1
  3339  2525  2484    1
  3340   330   326   ar
  3341   330   761   ar
  3342  1188  1184    1
  3343  3762  3758    1
  3344   759   755   ar
  3345   759  1190   ar
  3346  1617  1613   ar
  3347  1617  2048   ar
  3348  2475  2471    1
  3349  2904  2900   ar
  3350  2904  3335   ar
  3351  2046  2042   ar
  3352  2046  2477   ar
  3353  3333  3329   ar
  3354  3333  3764   ar
  3355  2907  2897    1
  3356  1191  1181   ar
  3357  1191  2473   ar
  3358  3765  3755    1
  3359  2478  2468   ar
  3360  2478  3760   ar
  3361  3336  3326    1
  3362   762   752   ar
  3363   762  2044   ar
  3364  2049  2039   ar
  3365  2049  3331   ar
  3366   333   323   ar
  3367   333  1615   ar
  3368  1620  1610   ar
  3369  1620  2902   ar
  3370  1660  1626    1
  3371  3805  3771    1
  3372  2947  2913    1
  3373  1231  1197    1
  3374  2089  2055    1
  3375  2518  2484    1
  3376   802   768    1
  3377   373   339    1
  3378  3376  3342    1
  3379   339   399    1
  3380  3342  3402    1
  3381   768   828    1
  3382  1197  1257    1
  3383  2913  2973    1
  3384  3771  3831    1
  3385  2055  2115    1
  3386  1626  1686    1
  3387  2484  2544    1
  3388  2042  2047   ar
  3389  3329  3334   ar
  3390  2900  2905   ar
  3391  1184  1189    2
  3392  3758  3763    2
  3393   755   760   ar
  3394   326   331   ar
  3395  2471  2476    2
  3396  1613  1618   ar
  3397  2452  2473    1
  3398  2881  2902    1
  3399  3310  3331    1
  3400   307   328    1
  3401  1165  1186    1
  3402   736   757    1
  3403  2023  2044    1
  3404  1594  1615    1
  3405  3739  3760    1
  3406  3755  3759    1
  3407  1610  1614   ar
  3408  1181  1185   ar
  3409  2039  2043   ar
  3410   323   327   ar
  3411  3326  3330    1
  3412  2897  2901    1
  3413   752   756   ar
  3414  2468  2472   ar
  3415   303   332    1
  3416  1590  1619    1
  3417  2019  2048    1
  3418  1161  1190    1
  3419  2877  2906    1
  3420  3306  3335    1
  3421  2448  2477    1
  3422   732   761    1
  3423  3735  3764    1
  3424  1693  1690    1
  3425  1693  2984    1
  3426   406   403    1
  3427   406  1697    1
  3428  3409  3406    1
  3429  1264  1261    1
  3430  1264  2555   ar
  3431  2551  2548    1
  3432  2551  3842   ar
  3433   835   832    1
  3434   835  2126   ar
  3435  2980  2977    1
  3436  3838  3835    1
  3437  2122  2119    1
  3438  2122  3413   ar
  3439   328   324    1
  3440  2044  2040   ar
  3441  3760  3756   ar
  3442  1186  1182    1
  3443  3331  3327   ar
  3444  2473  2469   ar
  3445  1615  1611   ar
  3446   757   753    1
  3447  2902  2898   ar
  3448   837   833    1
  3449   837  1268    1
  3450  2124  2120    1
  3451  2124  2555   ar
  3452   408   404    1
  3453   408   839    1
  3454  2982  2978    1
  3455  2982  3413   ar
  3456  1695  1691    1
  3457  1695  2126   ar
  3458  3411  3407    1
  3459  3411  3842   ar
  3460  2553  2549    1
  3461  3840  3836    1
  3462  1266  1262    1
  3463  2477  2470   ar
  3464  1619  1612    1
  3465  1190  1183   ar
  3466  2048  2041   ar
  3467  2906  2899    1
  3468  3764  3757   ar
  3469  3335  3328   ar
  3470   761   754   ar
  3471   332   325    1
  3472  2984  2914    2
  3473  2555  2485    1
  3474  1268  1198    2
  3475  3413  3343    1
  3476  3842  3772    1
  3477   839   769    2
  3478   410   340    1
  3479  2126  2056    1
  3480  1697  1627    2
  3481  3402  3398   ar
  3482  3402  3399   ar
  3483  1686  1682   ar
  3484  1686  1683   ar
  3485   828   824   ar
  3486   828   825   ar
  3487  2544  2540   ar
  3488  2544  2541   ar
  3489   399   395   ar
  3490   399   396   ar
  3491  2115  2111   ar
  3492  2115  2112   ar
  3493  2973  2969   ar
  3494  2973  2970   ar
  3495  1257  1253   ar
  3496  1257  1254   ar
  3497  3831  3827   ar
  3498  3831  3828   ar
  3499  3821  3827    1
  3500   389   395    1
  3501  1676  1682    1
  3502   818   824    1
  3503  3392  3398    1
  3504  1247  1253    1
  3505  2534  2540    1
  3506  2963  2969    1
  3507  2105  2111    1
  3508  2537  2541    1
  3509   392   396    1
  3510   821   825    1
  3511  1679  1683    1
  3512  3395  3399    1
  3513  2966  2970    1
  3514  1250  1254    1
  3515  2108  2112    1
  3516  3824  3828    1
  3517  2905  2878    1
  3518  2905  3332   ar
  3519  2476  2449    1
  3520  2047  2020    1
  3521  2047  2474   ar
  3522  3763  3736    1
  3523  1189  1162    1
  3524  3334  3307    1
  3525  3334  3761   ar
  3526  1618  1591    1
  3527  1618  2045   ar
  3528   760   733    1
  3529   760  1187   ar
  3530   331   304    1
  3531   331   758   ar
  3532  1174  1213    1
  3533  3319  3358    1
  3534  2890  2929    1
  3535  2461  2500    1
  3536  1603  1642    1
  3537   316   355    1
  3538  3748  3787    1
  3539   745   784    1
  3540  2032  2071    1
  3541   395   398   ar
  3542  3827  3830   ar
  3543  3398  3401   ar
  3544  2540  2543   ar
  3545  1253  1256   ar
  3546  2969  2972   ar
  3547  2111  2114   ar
  3548   824   827   ar
  3549  1682  1685   ar
  3550  3330  3358    1
  3551  2901  2929    1
  3552  3759  3787    1
  3553  1614  1642    1
  3554  1614  2908   ar
  3555  2472  2500    1
  3556  2472  3766   ar
  3557   327   355    1
  3558   327  1621   ar
  3559  1185  1213    1
  3560  1185  2479   ar
  3561   756   784    1
  3562   756  2050   ar
  3563  2043  2071    1
  3564  2043  3337   ar
  3565  2970  2971   ar
  3566  2541  2542   ar
  3567  3399  3400   ar
  3568  3828  3829   ar
  3569  1683  1684   ar
  3570   825   826   ar
  3571  1254  1255   ar
  3572  2112  2113   ar
  3573   396   397   ar
  3574   324   334    2
  3575   324   320    1
  3576  2040  2050   ar
  3577  2040  2036    1
  3578   753   763    2
  3579   753   749    1
  3580  3756  3766   ar
  3581  3756  3752    1
  3582  1182  1192    2
  3583  1182  1178    1
  3584  3327  3337   ar
  3585  3327  3323    1
  3586  1611  1621   ar
  3587  1611  1607    1
  3588  2898  2908   ar
  3589  2898  2894    1
  3590  2469  2479   ar
  3591  2469  2465    1
  3592   325   329    2
  3593   325   321    1
  3594  3328  3332   ar
  3595  3328  3324    1
  3596  3757  3761   ar
  3597  3757  3753    1
  3598  2041  2045   ar
  3599  2041  2037    1
  3600  2470  2474   ar
  3601  2470  2466    1
  3602   754   758   ar
  3603   754   750    1
  3604  2899  2903    2
  3605  2899  2895    1
  3606  1183  1187   ar
  3607  1183  1179    1
  3608  1612  1616    2
  3609  1612  1608    1
  3610  2914  2948    1
  3611  2914  2953    1
  3612   769   803    1
  3613   769   808    1
  3614  2485  2519    1
  3615  2485  2524    1
  3616  3343  3377    1
  3617  3343  3382    1
  3618   340   374    1
  3619   340   379    1
  3620  1198  1232    1
  3621  1198  1237    1
  3622  3772  3806    1
  3623  3772  3811    1
  3624  1627  1661    1
  3625  1627  1666    1
  3626  2056  2090    1
  3627  2056  2095    1
  3628   784   744    1
  3629  2929  2889    1
  3630  3787  3747    1
  3631  1213  1173    1
  3632   355   315    1
  3633  1642  1602    1
  3634  2071  2031    1
  3635  2500  2460    1
  3636  3358  3318    1
  3637  1661  1580    1
  3638   803   722    1
  3639  2519  2438    1
  3640  3806  3725    1
  3641  2090  2009    1
  3642  1232  1151    1
  3643   374   293    1
  3644  2948  2867    1
  3645  3377  3296    1
  3646  1192  1163    1
  3647  2050  2021    1
  3648  3337  3308    1
  3649  2908  2879    1
  3650  1621  1592    1
  3651  3766  3737    1
  3652   763   734    1
  3653  2479  2450    1
  3654   334   305    1
  3655  1187  1214    1
  3656  1616  1643    1
  3657  2474  2501    1
  3658  2903  2930    1
  3659  3332  3359    1
  3660   329   356    1
  3661  2045  2072    1
  3662  3761  3788    1
  3663   758   785    1
  3664  3382  3292    1
  3665  2524  2434    1
  3666   379   289    1
  3667  1666  1576    1
  3668  3811  3721    1
  3669   808   718    1
  3670  1237  1147    1
  3671  2953  2863    1
  3672  2095  2005    1
  3673  2074  2036    1
  3674  2074  2009    1
  3675   787   749    1
  3676   787   722    1
  3677  3790  3752    1
  3678  3790  3725    1
  3679  2503  2465    1
  3680  2503  2438    1
  3681  3361  3323    1
  3682  3361  3296    1
  3683  1645  1607    1
  3684  1645  1580    1
  3685   358   320    1
  3686   358   293    1
  3687  2932  2894    1
  3688  2932  2867    1
  3689  1216  1178    1
  3690  1216  1151    1
  3691  2543  2535    1
  3692  2543  2539   ar
  3693  1256  1248    1
  3694  1256  1252   ar
  3695  3830  3822    1
  3696  3830  3826   ar
  3697  2114  2106    1
  3698  2114  2110   ar
  3699  3401  3393    1
  3700  3401  3397   ar
  3701   398   390    1
  3702   398   394   ar
  3703  2972  2964    1
  3704  2972  2968   ar
  3705   827   819    1
  3706   827   823   ar
  3707  1685  1677    1
  3708  1685  1681   ar
  3709  1649  1608    1
  3710  1649  1576    1
  3711   362   321    1
  3712   362   289    1
  3713   791   750    1
  3714   791   718    1
  3715  2078  2037    1
  3716  2078  2005    1
  3717  3365  3324    1
  3718  3365  3292    1
  3719  2507  2466    1
  3720  2507  2434    1
  3721  2936  2895    1
  3722  2936  2863    1
  3723  3794  3753    1
  3724  3794  3721    1
  3725  1220  1179    1
  3726  1220  1147    1
  3727  2113  2109    1
  3728  2113  2110   ar
  3729  2542  2538    1
  3730  2542  2539   ar
  3731  1255  1251    1
  3732  1255  1252   ar
  3733  3829  3825    1
  3734  3829  3826   ar
  3735  2971  2967    1
  3736  2971  2968   ar
  3737   397   393    1
  3738   397   394   ar
  3739  1684  1680    1
  3740  1684  1681   ar
  3741  3400  3396    1
  3742  3400  3397   ar
  3743   826   822    1
  3744   826   823   ar
  3745   320   364    1
  3746  3323  3367    1
  3747  2894  2938    1
  3748   749   793    1
  3749  3752  3796    1
  3750  2036  2080    1
  3751  1607  1651    1
  3752  1178  1222    1
  3753  2465  2509    1
  3754  3753  3791    1
  3755  2037  2075    1
  3756  1608  1646    1
  3757   750   788    1
  3758  2466  2504    1
  3759  2895  2933    1
  3760  1179  1217    1
  3761  3324  3362    1
  3762   321   359    1
  3763  2968  2965    1
  3764  1252  1249    1
  3765   823   820    1
  3766  3397  3394    1
  3767   394   391    1
  3768  1681  1678    1
  3769  2110  2107    1
  3770  3826  3823    1
  3771  2539  2536    1
  3772  2930  2891    1
  3773  2930  2892    1
  3774  2072  2033    1
  3775  2072  2034    1
  3776  1214  1175    1
  3777  1214  1176    1
  3778  1643  1604    1
  3779  1643  1605    1
  3780   785   746    1
  3781   785   747    1
  3782  3788  3749    1
  3783  3788  3750    1
  3784  2501  2462    1
  3785  2501  2463    1
  3786  3359  3320    1
  3787  3359  3321    1
  3788   356   317    1
  3789   356   318    1
  3790  1580  1673    1
  3791  1580  1653    1
  3792  1580  1655    1
  3793   722   815    1
  3794   722   795    1
  3795   722   797    1
  3796  3296  3389    1
  3797  3296  3369    1
  3798  3296  3371    1
  3799  3725  3818    1
  3800  3725  3798    1
  3801  3725  3800    1
  3802   293   386    1
  3803   293   366    1
  3804   293   368    1
  3805  2867  2960    1
  3806  2867  2940    1
  3807  2867  2942    1
  3808  1151  1244    1
  3809  1151  1224    1
  3810  1151  1226    1
  3811  2009  2102    1
  3812  2009  2082    1
  3813  2009  2084    1
  3814  2438  2531    1
  3815  2438  2511    1
  3816  2438  2513    1
  3817  3721  3803    1
  3818  3721  3801    1
  3819   289   371    1
  3820   289   369    1
  3821  2863  2945    1
  3822  2863  2943    1
  3823  2434  2516    1
  3824  2434  2514    1
  3825   718   800    1
  3826   718   798    1
  3827  2005  2087    1
  3828  2005  2085    1
  3829  1147  1229    1
  3830  1147  1227    1
  3831  1576  1658    1
  3832  1576  1656    1
  3833  3292  3374    1
  3834  3292  3372    1
  3835  2509  2432    1
  3836  2080  2003    1
  3837  1222  1145    1
  3838  3796  3719    1
  3839   364   287    1
  3840   793   716    1
  3841  3367  3290    1
  3842  2938  2861    1
  3843  1651  1574    1
  3844  3791  3724    1
  3845  3362  3295    1
  3846  2075  2008    1
  3847  2933  2866    1
  3848   359   292    1
  3849   788   721    1
  3850  1217  1150    1
  3851  2504  2437    1
  3852  1646  1579    1
  3853  3745  3786    1
  3854  2458  2499    1
  3855  3316  3357    1
  3856  1171  1212    1
  3857  2887  2928    1
  3858  1600  1641    1
  3859   313   354    1
  3860   742   783    1
  3861  2029  2070    1
  3862   386   312    1
  3863  1673  1599    1
  3864  2960  2886    1
  3865  2102  2028    1
  3866  3818  3744    1
  3867   815   741    1
  3868  2531  2457    1
  3869  1244  1170    1
  3870  3389  3315    1
  3871  1653  1574    1
  3872  1224  1145    1
  3873  3369  3290    1
  3874  2940  2861    1
  3875  3798  3719    1
  3876   366   287    1
  3877  2511  2432    1
  3878  2082  2003    1
  3879   795   716    1
  3880  1658  1579    1
  3881   800   721    1
  3882  2516  2437    1
  3883  1229  1150    1
  3884  2945  2866    1
  3885  2087  2008    1
  3886  3803  3724    1
  3887   371   292    1
  3888  3374  3295    1
  3889  1601  1641    1
  3890  1172  1212    1
  3891  3317  3357    1
  3892  2459  2499    1
  3893  2030  2070    1
  3894  2888  2928    1
  3895  3746  3786    1
  3896   743   783    1
  3897   314   354    1
  3898  1269  1279    1
  3899  1698  1708    1
  3900  2985  2995    1
  3901   840   850    1
  3902  2556  2566    1
  3903   411   421    1
  3904  2127  2137    1
  3905  3843  3853    1
  3906  3414  3424    1
  3907  1641  1636    1
  3908   783   778    1
  3909  2499  2494    1
  3910  3357  3352    1
  3911  3786  3781    1
  3912  2070  2065    1
  3913  1212  1207    1
  3914   354   349    1
  3915  2928  2923    1
  3916  2988  2994    1
  3917  1701  1707    1
  3918   843   849    1
  3919  3846  3852    1
  3920  1272  1278    1
  3921  3417  3423    1
  3922  2559  2565    1
  3923  2130  2136    1
  3924   414   420    1
  3925  3371  3290    1
  3926   797   716    1
  3927  2942  2861    1
  3928  2084  2003    1
  3929  2513  2432    1
  3930  1226  1145    1
  3931  3800  3719    1
  3932   368   287    1
  3933  1655  1574    1
  3934  1227  1150    1
  3935   798   721    1
  3936  3372  3295    1
  3937  2943  2866    1
  3938  2085  2008    1
  3939  1656  1579    1
  3940  3801  3724    1
  3941  2514  2437    1
  3942   369   292    1
  3943  2013  2064    1
  3944  2442  2493    1
  3945  1155  1206    1
  3946   726   777    1
  3947  2871  2922    1
  3948  3300  3351    1
  3949  1584  1635    1
  3950  3729  3780    1
  3951   297   348    1
  3952   842   850    1
  3953  2129  2137    1
  3954  3416  3424    1
  3955  3845  3853    1
  3956  2558  2566    1
  3957   413   421    1
  3958  1700  1708    1
  3959  1271  1279    1
  3960  2987  2995    1
  3961   728   780    1
  3962  3302  3354    1
  3963  1157  1209    1
  3964  2873  2925    1
  3965   299   351    1
  3966  2444  2496    1
  3967  2015  2067    1
  3968  3731  3783    1
  3969  1586  1638    1
  3970  2869  2920    1
  3971  3298  3349    1
  3972  3727  3778    1
  3973   724   775    1
  3974  2011  2062    1
  3975  1153  1204    1
  3976  2440  2491    1
  3977  1582  1633    1
  3978   295   346    1
  3979  2990  2993    1
  3980   416   419    1
  3981   845   848    1
  3982  1274  1277    1
  3983  3848  3851    1
  3984  3419  3422    1
  3985  2132  2135    1
  3986  2561  2564    1
  3987  1703  1706    1
  3988  2432  2527    1
  3989  2432  2529    1
  3990  2432  2533    1
  3991  3719  3814    1
  3992  3719  3816    1
  3993  3719  3820    1
  3994  2003  2098    1
  3995  2003  2100    1
  3996  2003  2104    1
  3997   287   382    1
  3998   287   384    1
  3999   287   388    1
  4000  1145  1240    1
  4001  1145  1242    1
  4002  1145  1246    1
  4003   716   811    1
  4004   716   813    1
  4005   716   817    1
  4006  2861  2956    1
  4007  2861  2958    1
  4008  2861  2962    1
  4009  1574  1669    1
  4010  1574  1671    1
  4011  1574  1675    1
  4012  3290  3385    1
  4013  3290  3387    1
  4014  3290  3391    1
  4015  3853  3851    1
  4016  3853  3844    1
  4017   421   419    1
  4018   421   412    1
  4019  3424  3422    1
  4020  3424  3415    1
  4021  2995  2993    1
  4022  2995  2986    1
  4023  2137  2135    1
  4024  2137  2128    1
  4025  1279  1277    1
  4026  1279  1270    1
  4027  2566  2564    1
  4028  2566  2557    1
  4029  1708  1706    1
  4030  1708  1699    1
  4031   850   848    1
  4032   850   841    1
  4033  2008  2093    1
  4034  2008  2091    1
  4035  1579  1664    1
  4036  1579  1662    1
  4037  2866  2951    1
  4038  2866  2949    1
  4039   292   377    1
  4040   292   375    1
  4041  2437  2522    1
  4042  2437  2520    1
  4043  1150  1235    1
  4044  1150  1233    1
  4045  3724  3809    1
  4046  3724  3807    1
  4047  3295  3380    1
  4048  3295  3378    1
  4049   721   806    1
  4050   721   804    1
  4051  2565  2567    2
  4052  2565  2563    1
  4053  2136  2138    2
  4054  2136  2134    1
  4055  1278  1280    1
  4056  1278  1276    2
  4057  1707  1709    2
  4058  1707  1705    1
  4059   849   851    2
  4060   849   847    1
  4061  3852  3854    2
  4062  3852  3850    1
  4063  3423  3425    1
  4064  3423  3421    2
  4065   420   422    2
  4066   420   418    1
  4067  2994  2996    1
  4068  2994  2992    2
  4069  1636  2922    2
  4070  1636  1624    1
  4071  3352  3340    1
  4072  2923  2911    1
  4073   349  1635    2
  4074   349   337    1
  4075  3781  3769    1
  4076   778  2064    2
  4077   778   766    1
  4078  1207  2493    2
  4079  1207  1195    1
  4080  2065  3351    2
  4081  2065  2053    1
  4082  2494  3780    2
  4083  2494  2482    1
  4084   777   767    1
  4085  3351  3341    1
  4086  1635  1625    1
  4087  2922  2912    1
  4088   348   338    1
  4089  2064  2054    1
  4090  2493  2483    1
  4091  1206  1196    1
  4092  3780  3770    1
  4093  3783  3349    2
  4094  2067  1633    2
  4095   780   346    2
  4096  3354  2920    2
  4097  2496  2062    2
  4098  1209   775    2
  4099  2527  2489    1
  4100   811   773    1
  4101   382   344    1
  4102  1240  1202    1
  4103  2098  2060    1
  4104  3385  3347    1
  4105  2956  2918    1
  4106  1669  1631    1
  4107  3814  3776    1
  4108   806   772    1
  4109  2951  2917    1
  4110  1235  1201    1
  4111  3380  3346    1
  4112  2522  2488    1
  4113  3809  3775    1
  4114   377   343    1
  4115  1664  1630    1
  4116  2093  2059    1
  4117   419   422    1
  4118   419   417    1
  4119  2993  2996    1
  4120  2993  2991    1
  4121  3851  3854    1
  4122  3851  3849    1
  4123  1706  1709    1
  4124  1706  1704    1
  4125  2564  2567    1
  4126  2564  2562    1
  4127  1277  1280    1
  4128  1277  1275    1
  4129   848   851    1
  4130   848   846    1
  4131  2135  2138    1
  4132  2135  2133    1
  4133  3422  3425    1
  4134  3422  3420    1
  4135   804   770    1
  4136   375   341    1
  4137  2520  2486    1
  4138  3378  3344    1
  4139  2949  2915    1
  4140  1233  1199    1
  4141  1662  1628    1
  4142  2091  2057    1
  4143  3807  3773    1
  4144  1273  1276    1
  4145  2131  2134    1
  4146  1702  1705    1
  4147   415   418    1
  4148  2989  2992    1
  4149  2560  2563    1
  4150  3847  3850    1
  4151  3418  3421    1
  4152   844   847    1
  4153   301   388    1
  4154  2017  2104    1
  4155  3733  3820    1
  4156   730   817    1
  4157  1588  1675    1
  4158  1159  1246    1
  4159  2446  2533    1
  4160  2875  2962    1
  4161  3304  3391    1
  4162  2482  2488    2
  4163  2053  2059    2
  4164   337   343    2
  4165  1195  1201    2
  4166  1624  1630    2
  4167   766   772    2
  4168  3340  3346    2
  4169  3769  3775    2
  4170  2911  2917    2
  4171   338   344    2
  4172  2054  2060    2
  4173  2483  2489    2
  4174  2912  2918    2
  4175  3770  3776    2
  4176  1625  1631    2
  4177  1196  1202    2
  4178   767   773    2
  4179  3341  3347    2
