@<TRIPOS>MOLECULE
Lattice="48.012771 0.0 0.0 -18.59785711880508 45.42014607028594 0.0 -14.208785858084553 -22.394174268473364 40.236326442778925" Properties=species:S:1:pos:R:3 i=1 E=-1458.046242801 pbc="T T T"
 4077 4542 0 0 0
SMALL
GASTEIGER

@<TRIPOS>ATOM
      1 TI         -2.9699    2.3490   11.5235 Ti      1  UNL1        0.0000
      2 TI          8.1081    5.4118    1.9128 Ti      1  UNL1        0.0000
      3 TI          1.5750   -0.9658    9.6276 Ti      1  UNL1        0.0000
      4 TI          3.5158    8.7255    3.8044 Ti      1  UNL1        0.0000
      5 TI          1.8432    9.6140    1.8373 Ti      1  UNL1        0.0000
      6 TI          3.0462   -2.1305   11.5968 Ti      1  UNL1        0.0000
      7 TI         -1.5227    1.0487    9.6244 Ti      1  UNL1        0.0000
      8 TI          6.3922    6.4555    3.7615 Ti      1  UNL1        0.0000
      9 H           3.6779    1.7170    7.1475 H       1  UNL1        0.0000
     10 H          -0.0077   -3.9529    7.4332 H       1  UNL1        0.0000
     11 H           5.1418   11.5113    6.0344 H       1  UNL1        0.0000
     12 H          -2.9574    6.3693   11.3553 H       1  UNL1        0.0000
     13 H           7.9342    1.2817    2.2224 H       1  UNL1        0.0000
     14 H          -6.7229    0.7366   11.1746 H       1  UNL1        0.0000
     15 H          11.7806    6.8896    2.1016 H       1  UNL1        0.0000
     16 H           3.2775   -6.2867   11.2923 H       1  UNL1        0.0000
     17 H          -2.0603    8.2301    2.1035 H       1  UNL1        0.0000
     18 H           4.8172    3.6745    6.0619 H       1  UNL1        0.0000
     19 H           0.0639    4.0187    7.4479 H       1  UNL1        0.0000
     20 H          -3.6741   -1.7201    7.2442 H       1  UNL1        0.0000
     21 H           2.7089    8.1903   -0.0835 H       1  UNL1        0.0000
     22 H           7.0880    6.8759    0.0873 H       1  UNL1        0.0000
     23 H           0.4495    0.7092   11.1934 H       1  UNL1        0.0000
     24 H           4.4477    6.9754    2.2085 H       1  UNL1        0.0000
     25 H           3.6838   -2.3108    6.1491 H       1  UNL1        0.0000
     26 H           1.3447    9.8774    7.3050 H       1  UNL1        0.0000
     27 H          -5.9986    4.1588    9.1195 H       1  UNL1        0.0000
     28 H          10.9444    3.4612    4.3936 H       1  UNL1        0.0000
     29 H          -3.5354    2.5097    6.0062 H       1  UNL1        0.0000
     30 H          -1.0851   11.8025    4.3243 H       1  UNL1        0.0000
     31 H           0.0187    6.2155    6.5342 H       1  UNL1        0.0000
     32 H           1.4321    6.9796    5.8373 H       1  UNL1        0.0000
     33 H           1.6785   12.8316    2.6250 H       1  UNL1        0.0000
     34 H           7.8981   -0.7724    3.4220 H      45  UNL45       0.0000
     35 H           7.4758   -0.2708   10.0486 H       1  UNL1        0.0000
     36 H           6.1246   -1.0787   10.8162 H       1  UNL1        0.0000
     37 H          10.0001    9.0633    6.3961 H       1  UNL1        0.0000
     38 H           8.6285    8.3317    5.5873 H       1  UNL1        0.0000
     39 H           8.1275    5.4218    8.6413 H       1  UNL1        0.0000
     40 H           7.6319    5.6884    6.9780 H       1  UNL1        0.0000
     41 H           7.0422   -4.8968    9.5952 H       1  UNL1        0.0000
     42 H           5.7064   -3.9044   10.1562 H       1  UNL1        0.0000
     43 C           8.7801    4.9103    4.7582 C.3     1  UNL1        0.0000
     44 C          -3.8028    2.7160    8.7045 C.2     1  UNL1        0.0000
     45 C           3.9416   -2.5492    8.7584 C.2     1  UNL1        0.0000
     46 C           1.0562   10.1569    4.6723 C.3     1  UNL1        0.0000
     47 C           9.6127    4.3379    5.8265 C.ar    1  UNL1        0.0000
     48 C          -4.6939    3.2918    7.6602 C.2     1  UNL1        0.0000
     49 C           4.7920   -3.2053    7.7518 C.2     1  UNL1        0.0000
     50 C           0.2103   10.7807    5.7287 C.ar    1  UNL1        0.0000
     51 C           9.3122    4.5273    7.2151 C.ar    1  UNL1        0.0000
     52 C          -4.4081    3.0896    6.2926 C.3     1  UNL1        0.0000
     53 C           5.8784   -4.0691    8.1126 C.3     1  UNL1        0.0000
     54 C          -0.8686   11.6198    5.3731 C.ar    1  UNL1        0.0000
     55 C           0.5070   10.5291    7.0640 C.ar    1  UNL1        0.0000
     56 C           4.5167   -2.9698    6.3847 C.3     1  UNL1        0.0000
     57 C          10.7508    3.5845    5.4567 C.ar    1  UNL1        0.0000
     58 C          -5.8061    4.0264    8.0566 C.3     1  UNL1        0.0000
     59 C           3.1003    4.9551    6.1491 C.ar    1  UNL1        0.0000
     60 C           1.7993    2.7702    7.3445 C.ar    1  UNL1        0.0000
     61 C           6.8913   10.2727    6.0546 C.ar    1  UNL1        0.0000
     62 C          -1.7767   -2.7476    7.3994 C.2     1  UNL1        0.0000
     63 C           8.0467    1.3640    0.0879 C.2     1  UNL1        0.0000
     64 C           1.7817   13.7266    0.1310 C.2     1  UNL1        0.0000
     65 C          11.7334    6.7935   -0.0382 C.2     1  UNL1        0.0000
     66 C          -1.8590    8.2964   -0.0492 C.2     1  UNL1        0.0000
     67 C           3.8228    6.0344    5.4547 C.3     1  UNL1        0.0000
     68 C           1.1023    1.6225    7.9972 C.3     1  UNL1        0.0000
     69 C           6.2183    9.2339    5.2665 C.3     1  UNL1        0.0000
     70 C          -1.1311   -1.6563    8.1807 C.2     1  UNL1        0.0000
     71 C           8.1003    2.8530    0.0911 C.2     1  UNL1        0.0000
     72 C           1.7632   12.2588    0.0849 C.2     1  UNL1        0.0000
     73 C          10.4444    6.0844   -0.0134 C.2     1  UNL1        0.0000
     74 C          -0.5608    9.0319   -0.0126 C.2     1  UNL1        0.0000
     75 C           1.7306    5.0829    6.5494 C.ar    1  UNL1        0.0000
     76 C           3.1556    2.6528    6.9717 C.ar    1  UNL1        0.0000
     77 C           6.1713   11.4460    6.3780 C.ar    1  UNL1        0.0000
     78 C          -1.0408   -3.8877    7.0963 C.3     1  UNL1        0.0000
     79 C           7.9563    0.6973    1.3045 C.3     1  UNL1        0.0000
     80 C          -2.9827    6.9550   12.2712 C.ar    1  UNL1        0.0000
     81 C          12.3117    7.1712    1.1955 C.2     1  UNL1        0.0000
     82 C          -7.2552    0.4577   12.0823 C.3     1  UNL1        0.0000
     83 C           8.2536   10.1392    6.4782 C.ar    1  UNL1        0.0000
     84 C          -3.1221   -2.6210    6.9921 C.3     1  UNL1        0.0000
     85 C           3.7790    3.7362    6.3796 C.ar    1  UNL1        0.0000
     86 C           1.1059    3.9582    7.1384 C.ar    1  UNL1        0.0000
     87 C           7.5388   -0.3367   12.1001 C.ar    1  UNL1        0.0000
     88 C          -2.5045    7.9421    1.1553 C.3     1  UNL1        0.0000
     89 C           3.2129   -6.8294   12.2310 C.3     1  UNL1        0.0000
     90 C           1.7419   14.4519    1.3662 C.2     1  UNL1        0.0000
     91 N           1.0237    6.2482    6.4177 N.pl3   1  UNL1        0.0000
     92 N           1.6083   13.8462    2.5831 N.pl3   1  UNL1        0.0000
     93 N           7.0707   -0.7054   10.8681 N.pl3   1  UNL1        0.0000
     94 N           9.0008    9.0179    6.2417 N.pl3   1  UNL1        0.0000
     95 N           8.2102    5.1998    7.6577 N.pl3   1  UNL1        0.0000
     96 N           6.1905   -4.3859    9.4025 N.3     1  UNL1        0.0000
     97 O           7.7605    5.6326    5.0831 O.3     1  UNL1        0.0000
     98 O          -2.8569    1.9387    8.3329 O.2     1  UNL1        0.0000
     99 O           4.2148   -2.7326   10.0094 O.2     1  UNL1        0.0000
    100 O           0.7252   10.3251    3.4504 O.3     1  UNL1        0.0000
    101 O           2.0798    9.4767    5.0517 O.3     1  UNL1        0.0000
    102 O           2.9667   -1.8079    8.3739 O.2     1  UNL1        0.0000
    103 O           9.0964    4.6803    3.5318 O.3     1  UNL1        0.0000
    104 O          -4.0321    3.0326    9.9274 O.2     1  UNL1        0.0000
    105 O           6.4251    5.0030    2.7339 O.3     1  UNL1        0.0000
    106 O          -1.3824    2.5928   10.6194 O.3     1  UNL1        0.0000
    107 O           7.8384    7.0194    2.6670 O.3     1  UNL1        0.0000
    108 O          -2.8710    0.6444   10.8036 O.3     1  UNL1        0.0000
    109 O           1.5689   -2.5387   10.6264 O.3     1  UNL1        0.0000
    110 O           3.3713   10.1927    2.7631 O.3     1  UNL1        0.0000
    111 O           2.8055   -0.4275   10.8795 O.3     1  UNL1        0.0000
    112 O           2.2145    8.0250    2.6052 O.3     1  UNL1        0.0000
    113 O           5.0664    5.8463    5.1648 O.3     1  UNL1        0.0000
    114 O          -0.1572    1.7024    8.1845 O.3     1  UNL1        0.0000
    115 O           6.8473    8.1743    4.9401 O.3     1  UNL1        0.0000
    116 O          -1.8591   -0.6837    8.5683 O.2     1  UNL1        0.0000
    117 O           3.2266   -4.0240   12.3207 O.2     1  UNL1        0.0000
    118 O           1.6688   11.5916    1.1731 O.2     1  UNL1        0.0000
    119 O           5.0220   -1.7008   12.2383 O.3     1  UNL1        0.0000
    120 O          -0.0240    9.1971    1.1417 O.2     1  UNL1        0.0000
    121 O           4.9890    9.4299    4.9129 O.3     1  UNL1        0.0000
    122 O           0.1163   -1.7508    8.4319 O.2     1  UNL1        0.0000
    123 O           3.2003    7.1127    5.1522 O.3     1  UNL1        0.0000
    124 O           1.8226    0.6204    8.3395 O.3     1  UNL1        0.0000
    125 O           9.9245    5.7986    1.1311 O.2     1  UNL1        0.0000
    126 O          -4.9124    1.9602   12.2540 O.2     1  UNL1        0.0000
    127 O           8.1541    3.4536    1.2090 O.2     1  UNL1        0.0000
    128 O          -2.9988    4.1960   12.3014 O.3     1  UNL1        0.0000
    129 O           4.8996    7.4993    2.8945 O.3     1  UNL1        0.0000
    130 O           0.0781    0.1341   10.5004 O.3     1  UNL1        0.0000
    131 O           7.3161    5.9290    0.0799 O.3     1  UNL1        0.0000
    132 O           2.5397    9.1468   -0.0049 O.3     1  UNL1        0.0000
    133 H           0.2866    3.1660   12.4303 H       3  UNL3        0.0000
    134 H           1.7438    2.7251   10.1083 H       3  UNL3        0.0000
    135 C           1.3141    2.8494   12.2927 C.2     3  UNL3        0.0000
    136 H           4.3000    3.7647    9.4335 H       3  UNL3        0.0000
    137 C           2.0330    2.6326   11.1460 C.2     3  UNL3        0.0000
    138 H           1.5059    3.7090   15.0022 H       3  UNL3        0.0000
    139 N           2.1653    2.5727   13.3518 N.pl3   3  UNL3        0.0000
    140 C           5.0366    3.1987   10.0181 C.3     3  UNL3        0.0000
    141 H           5.4464    3.8399   10.8074 H       3  UNL3        0.0000
    142 C           1.8107    2.6816   14.7748 C.3     3  UNL3        0.0000
    143 N           3.3087    2.2435   11.5153 N.pl3   3  UNL3        0.0000
    144 H           0.9840    1.9971   14.9973 H       3  UNL3        0.0000
    145 H           5.8515    2.9185    9.3350 H       3  UNL3        0.0000
    146 C           3.3634    2.2025   12.8583 C.3     3  UNL3        0.0000
    147 C           4.4255    1.9257   10.5947 C.3     3  UNL3        0.0000
    148 H           4.0154    1.2662    9.8208 H       3  UNL3        0.0000
    149 H           2.6780    2.3978   15.3787 H       3  UNL3        0.0000
    150 H           4.2249    1.9230   13.4511 H       3  UNL3        0.0000
    151 H           5.1490    1.3375   11.1718 H       3  UNL3        0.0000
    152 TI         -7.7062   -5.1157   24.9356 Ti      1  UNL1        0.0000
    153 TI          3.3718   -2.0530   15.3249 Ti      1  UNL1        0.0000
    154 TI         -3.1613   -8.4305   23.0397 Ti      1  UNL1        0.0000
    155 TI         -1.2204    1.2608   17.2165 Ti      1  UNL1        0.0000
    156 TI         -2.8930    2.1492   15.2494 Ti      1  UNL1        0.0000
    157 TI         -1.6901   -9.5952   25.0089 Ti      1  UNL1        0.0000
    158 TI         -6.2590   -6.4160   23.0365 Ti      1  UNL1        0.0000
    159 TI          1.6560   -1.0092   17.1736 Ti      1  UNL1        0.0000
    160 H          -1.0584   -5.7477   20.5596 H       1  UNL1        0.0000
    161 H          -4.7440  -11.4176   20.8453 H       1  UNL1        0.0000
    162 H           0.4055    4.0466   19.4465 H       1  UNL1        0.0000
    163 H          -7.6937   -1.0954   24.7674 H       1  UNL1        0.0000
    164 H           3.1979   -6.1830   15.6345 H       1  UNL1        0.0000
    165 H         -11.4591   -6.7282   24.5867 H       1  UNL1        0.0000
    166 H           7.0443   -0.5752   15.5137 H       1  UNL1        0.0000
    167 H          -1.4587  -13.7514   24.7045 H       1  UNL1        0.0000
    168 H          -6.7966    0.7653   15.5156 H       1  UNL1        0.0000
    169 H           0.0809   -3.7902   19.4740 H       1  UNL1        0.0000
    170 H          -4.6723   -3.4460   20.8600 H       1  UNL1        0.0000
    171 H          -8.4103   -9.1848   20.6563 H       1  UNL1        0.0000
    172 H          -2.0274    0.7256   13.3287 H       1  UNL1        0.0000
    173 H           2.3517   -0.5888   13.4994 H       1  UNL1        0.0000
    174 H          -4.2867   -6.7555   24.6055 H       1  UNL1        0.0000
    175 H          -0.2885   -0.4893   15.6206 H       1  UNL1        0.0000
    176 H          -1.0525   -9.7755   19.5612 H       1  UNL1        0.0000
    177 H          -3.3916    2.4127   20.7171 H       1  UNL1        0.0000
    178 H         -10.7348   -3.3059   22.5316 H       1  UNL1        0.0000
    179 H           6.2081   -4.0035   17.8057 H       1  UNL1        0.0000
    180 H          -8.2716   -4.9550   19.4183 H       1  UNL1        0.0000
    181 H          -5.8214    4.3378   17.7364 H       1  UNL1        0.0000
    182 H          -4.7175   -1.2492   19.9463 H       1  UNL1        0.0000
    183 H          -3.3042   -0.4851   19.2494 H       1  UNL1        0.0000
    184 H          -3.0578    5.3669   16.0371 H       1  UNL1        0.0000
    185 H           3.1618   -8.2372   16.8341 H      45  UNL45       0.0000
    186 H           2.7396   -7.7356   23.4607 H       1  UNL1        0.0000
    187 H           1.3883   -8.5434   24.2283 H       1  UNL1        0.0000
    188 H           5.2638    1.5985   19.8082 H       1  UNL1        0.0000
    189 H           3.8922    0.8669   18.9994 H       1  UNL1        0.0000
    190 H           3.3913   -2.0429   22.0534 H       1  UNL1        0.0000
    191 H           2.8957   -1.7764   20.3901 H       1  UNL1        0.0000
    192 H           2.3059  -12.3615   23.0073 H       1  UNL1        0.0000
    193 H           0.9701  -11.3691   23.5683 H       1  UNL1        0.0000
    194 C           4.0438   -2.5544   18.1703 C.3     1  UNL1        0.0000
    195 C          -8.5391   -4.7487   22.1166 C.2     1  UNL1        0.0000
    196 C          -0.7947  -10.0139   22.1705 C.2     1  UNL1        0.0000
    197 C          -3.6801    2.6922   18.0844 C.3     1  UNL1        0.0000
    198 C           4.8764   -3.1268   19.2386 C.ar    1  UNL1        0.0000
    199 C          -9.4301   -4.1729   21.0723 C.2     1  UNL1        0.0000
    200 C           0.0558  -10.6700   21.1639 C.2     1  UNL1        0.0000
    201 C          -4.5260    3.3160   19.1408 C.ar    1  UNL1        0.0000
    202 C           4.5759   -2.9374   20.6272 C.ar    1  UNL1        0.0000
    203 C          -9.1444   -4.3751   19.7047 C.3     1  UNL1        0.0000
    204 C           1.1422  -11.5338   21.5247 C.3     1  UNL1        0.0000
    205 C          -5.6049    4.1550   18.7852 C.ar    1  UNL1        0.0000
    206 C          -4.2292    3.0644   20.4761 C.ar    1  UNL1        0.0000
    207 C          -0.2196  -10.4345   19.7968 C.3     1  UNL1        0.0000
    208 C           6.0146   -3.8803   18.8688 C.ar    1  UNL1        0.0000
    209 C         -10.5424   -3.4383   21.4687 C.3     1  UNL1        0.0000
    210 C          -1.6359   -2.5096   19.5612 C.ar    1  UNL1        0.0000
    211 C          -2.9370   -4.6945   20.7567 C.ar    1  UNL1        0.0000
    212 C           2.1551    2.8080   19.4667 C.ar    1  UNL1        0.0000
    213 C          -6.5130  -10.2123   20.8116 C.2     1  UNL1        0.0000
    214 C           3.3104   -6.1007   13.5000 C.2     1  UNL1        0.0000
    215 C          -2.9546    6.2619   13.5431 C.ar    1  UNL1        0.0000
    216 C           6.9972   -0.6712   13.3739 C.ar    1  UNL1        0.0000
    217 C          -6.5953    0.8316   13.3629 C.2     1  UNL1        0.0000
    218 C          -0.9134   -1.4303   18.8668 C.3     1  UNL1        0.0000
    219 C          -3.6339   -5.8422   21.4093 C.3     1  UNL1        0.0000
    220 C           1.4820    1.7692   18.6786 C.3     1  UNL1        0.0000
    221 C          -5.8674   -9.1211   21.5928 C.2     1  UNL1        0.0000
    222 C           3.3640   -4.6118   13.5032 C.2     1  UNL1        0.0000
    223 C          -2.9730    4.7941   13.4970 C.3     1  UNL1        0.0000
    224 C           5.7082   -1.3803   13.3987 C.3     1  UNL1        0.0000
    225 C          -5.2971    1.5671   13.3995 C.2     1  UNL1        0.0000
    226 C          -3.0057   -2.3818   19.9615 C.ar    1  UNL1        0.0000
    227 C          -1.5806   -4.8119   20.3838 C.ar    1  UNL1        0.0000
    228 C           1.4350    3.9813   19.7901 C.ar    1  UNL1        0.0000
    229 C          -5.7771  -11.3524   20.5084 C.3     1  UNL1        0.0000
    230 C           3.2201   -6.7675   14.7166 C.3     1  UNL1        0.0000
    231 C          -7.7190   -0.5098   25.6833 C.ar    1  UNL1        0.0000
    232 C           7.5754   -0.2936   14.6077 C.ar    1  UNL1        0.0000
    233 C         -11.9914   -7.0070   25.4944 C.3     1  UNL1        0.0000
    234 C           3.5173    2.6745   19.8903 C.ar    1  UNL1        0.0000
    235 C          -7.8584  -10.0857   20.4042 C.3     1  UNL1        0.0000
    236 C          -0.9573   -3.7286   19.7917 C.ar    1  UNL1        0.0000
    237 C          -3.6304   -3.5066   20.5505 C.ar    1  UNL1        0.0000
    238 C           2.8026   -7.8014   25.5122 C.ar    1  UNL1        0.0000
    239 C          -7.2408    0.4774   14.5674 C.3     1  UNL1        0.0000
    240 C          -1.5234  -14.2941   25.6431 C.3     1  UNL1        0.0000
    241 C          -2.9944    6.9872   14.7783 C.ar    1  UNL1        0.0000
    242 N          -3.7126   -1.2165   19.8299 N.pl3   1  UNL1        0.0000
    243 N          -3.1279    6.3815   15.9952 N.pl3   1  UNL1        0.0000
    244 N           2.3345   -8.1701   24.2802 N.pl3   1  UNL1        0.0000
    245 N           4.2645    1.5532   19.6538 N.pl3   1  UNL1        0.0000
    246 N           3.4739   -2.2649   21.0699 N.pl3   1  UNL1        0.0000
    247 N           1.4542  -11.8506   22.8146 N.3     1  UNL1        0.0000
    248 O           3.0242   -1.8321   18.4952 O.3     1  UNL1        0.0000
    249 O          -7.5932   -5.5260   21.7450 O.2     1  UNL1        0.0000
    250 O          -0.5214  -10.1973   23.4215 O.2     1  UNL1        0.0000
    251 O          -4.0111    2.8604   16.8625 O.3     1  UNL1        0.0000
    252 O          -2.6564    2.0119   18.4638 O.3     1  UNL1        0.0000
    253 O          -1.7696   -9.2726   21.7860 O.2     1  UNL1        0.0000
    254 O           4.3602   -2.7845   16.9439 O.3     1  UNL1        0.0000
    255 O          -8.7684   -4.4321   23.3396 O.2     1  UNL1        0.0000
    256 O           1.6889   -2.4617   16.1460 O.3     1  UNL1        0.0000
    257 O          -6.1187   -4.8719   24.0316 O.3     1  UNL1        0.0000
    258 O           3.1021   -0.4454   16.0791 O.3     1  UNL1        0.0000
    259 O          -7.6072   -6.8203   24.2157 O.3     1  UNL1        0.0000
    260 O          -3.1674  -10.0035   24.0385 O.3     1  UNL1        0.0000
    261 O          -1.3650    2.7280   16.1752 O.3     1  UNL1        0.0000
    262 O          -1.9308   -7.8922   24.2916 O.3     1  UNL1        0.0000
    263 O          -2.5218    0.5603   16.0173 O.3     1  UNL1        0.0000
    264 O           0.3302   -1.6184   18.5769 O.3     1  UNL1        0.0000
    265 O          -4.8935   -5.7623   21.5966 O.3     1  UNL1        0.0000
    266 O           2.1110    0.7096   18.3522 O.3     1  UNL1        0.0000
    267 O          -6.5953   -8.1484   21.9804 O.2     1  UNL1        0.0000
    268 O          -1.5097  -11.4887   25.7328 O.2     1  UNL1        0.0000
    269 O          -3.0675    4.1269   14.5852 O.3     1  UNL1        0.0000
    270 O           0.2857   -9.1655   25.6504 O.3     1  UNL1        0.0000
    271 O          -4.7603    1.7324   14.5538 O.2     1  UNL1        0.0000
    272 O           0.2527    1.9652   18.3250 O.3     1  UNL1        0.0000
    273 O          -4.6200   -9.2155   21.8440 O.2     1  UNL1        0.0000
    274 O          -1.5359   -0.3521   18.5643 O.3     1  UNL1        0.0000
    275 O          -2.9137   -6.8443   21.7516 O.3     1  UNL1        0.0000
    276 O           5.1882   -1.6661   14.5432 O.3     1  UNL1        0.0000
    277 O          -9.6487   -5.5045   25.6661 O.2     1  UNL1        0.0000
    278 O           3.4179   -4.0111   14.6211 O.2     1  UNL1        0.0000
    279 O          -7.7350   -3.2687   25.7135 O.3     1  UNL1        0.0000
    280 O           0.1634    0.0346   16.3066 O.3     1  UNL1        0.0000
    281 O          -4.6582   -7.3306   23.9125 O.3     1  UNL1        0.0000
    282 O           2.5798   -1.5357   13.4920 O.3     1  UNL1        0.0000
    283 O          -2.1966    1.6821   13.4072 O.3     1  UNL1        0.0000
    284 H          -4.4497   -4.2987   25.8424 H       5  UNL5        0.0000
    285 H          -2.9925   -4.7397   23.5204 H       5  UNL5        0.0000
    286 C          -3.4221   -4.6153   25.7048 C.2     5  UNL5        0.0000
    287 H          -0.4362   -3.7001   22.8456 H       5  UNL5        0.0000
    288 C          -2.7032   -4.8322   24.5581 C.2     5  UNL5        0.0000
    289 H          -3.2303   -3.7557   28.4143 H       5  UNL5        0.0000
    290 N          -2.5710   -4.8920   26.7639 N.pl3   5  UNL5        0.0000
    291 C           0.3003   -4.2660   23.4302 C.3     5  UNL5        0.0000
    292 H           0.7101   -3.6248   24.2195 H       5  UNL5        0.0000
    293 C          -2.9256   -4.7831   28.1869 C.3     5  UNL5        0.0000
    294 N          -1.4276   -5.2213   24.9274 N.pl3   5  UNL5        0.0000
    295 H          -3.7522   -5.4676   28.4094 H       5  UNL5        0.0000
    296 H           1.1152   -4.5462   22.7471 H       5  UNL5        0.0000
    297 C          -1.3729   -5.2623   26.2704 C.3     5  UNL5        0.0000
    298 C          -0.3108   -5.5390   24.0069 C.3     5  UNL5        0.0000
    299 H          -0.7209   -6.1985   23.2329 H       5  UNL5        0.0000
    300 H          -2.0583   -5.0669   28.7908 H       5  UNL5        0.0000
    301 H          -0.5113   -5.5417   26.8632 H       5  UNL5        0.0000
    302 H           0.4128   -6.1272   24.5839 H       5  UNL5        0.0000
    303 TI        -12.4424  -12.5804   38.3477 Ti      1  UNL1        0.0000
    304 TI         -1.3645   -9.5177   28.7370 Ti      1  UNL1        0.0000
    305 TI         -7.8976  -15.8952   36.4518 Ti      1  UNL1        0.0000
    306 TI         -5.9567   -6.2039   30.6286 Ti      1  UNL1        0.0000
    307 TI         -7.6293   -5.3155   28.6615 Ti      1  UNL1        0.0000
    308 TI         -6.4263  -17.0599   38.4211 Ti      1  UNL1        0.0000
    309 TI        -10.9952  -13.8808   36.4486 Ti      1  UNL1        0.0000
    310 TI         -3.0803   -8.4740   30.5857 Ti      1  UNL1        0.0000
    311 H          -5.7947  -13.2124   33.9718 H       1  UNL1        0.0000
    312 H          -9.4802  -18.8823   34.2574 H       1  UNL1        0.0000
    313 H          -4.3308   -3.4181   32.8586 H       1  UNL1        0.0000
    314 H         -12.4300   -8.5602   38.1795 H       1  UNL1        0.0000
    315 H          -1.5383  -13.6478   29.0466 H       1  UNL1        0.0000
    316 H         -16.1954  -14.1929   37.9988 H       2  UNL2        0.0000
    317 H           2.3081   -8.0399   28.9258 H       1  UNL1        0.0000
    318 H          -6.1950  -21.2161   38.1166 H       4  UNL4        0.0000
    319 H         -11.5329   -6.6994   28.9277 H       1  UNL1        0.0000
    320 H          -4.6554  -11.2549   32.8862 H       1  UNL1        0.0000
    321 H          -9.4086  -10.9107   34.2721 H       1  UNL1        0.0000
    322 H         -13.1466  -16.6496   34.0684 H       1  UNL1        0.0000
    323 H          -6.7636   -6.7391   26.7408 H       1  UNL1        0.0000
    324 H          -2.3845   -8.0535   26.9115 H       1  UNL1        0.0000
    325 H          -9.0230  -14.2202   38.0176 H       1  UNL1        0.0000
    326 H          -5.0248   -7.9540   29.0328 H       1  UNL1        0.0000
    327 H          -5.7887  -17.2403   32.9733 H       1  UNL1        0.0000
    328 H          -8.1278   -5.0521   34.1292 H       1  UNL1        0.0000
    329 H         -15.4711  -10.7706   35.9437 H       1  UNL1        0.0000
    330 H           1.4718  -11.4683   31.2178 H       1  UNL1        0.0000
    331 H         -13.0079  -12.4197   32.8304 H       1  UNL1        0.0000
    332 H         -10.5576   -3.1270   31.1485 H       1  UNL1        0.0000
    333 H          -9.4538   -8.7140   33.3584 H       1  UNL1        0.0000
    334 H          -8.0404   -7.9498   32.6615 H       1  UNL1        0.0000
    335 H          -7.7941   -2.0978   29.4492 H       1  UNL1        0.0000
    336 H          -1.5745  -15.7019   30.2462 H      45  UNL45       0.0000
    337 H          -1.9967  -15.2003   36.8729 H       3  UNL3        0.0000
    338 H          -3.3479  -16.0081   37.6404 H       3  UNL3        0.0000
    339 H           0.5276   -5.8662   33.2204 H       1  UNL1        0.0000
    340 H          -0.8441   -6.5978   32.4115 H       1  UNL1        0.0000
    341 H          -1.3450   -9.5076   35.4656 H       1  UNL1        0.0000
    342 H          -1.8406   -9.2411   33.8022 H       1  UNL1        0.0000
    343 H          -2.4303  -19.8263   36.4194 H       1  UNL1        0.0000
    344 H          -3.7661  -18.8339   36.9805 H       1  UNL1        0.0000
    345 C          -0.6924  -10.0191   31.5824 C.3     1  UNL1        0.0000
    346 C         -13.2753  -12.2135   35.5287 C.2     1  UNL1        0.0000
    347 C          -5.5310  -17.4787   35.5826 C.2     1  UNL1        0.0000
    348 C          -8.4164   -4.7725   31.4965 C.3     1  UNL1        0.0000
    349 C           0.1401  -10.5916   32.6507 C.ar    1  UNL1        0.0000
    350 C         -14.1664  -11.6376   34.4844 C.2     1  UNL1        0.0000
    351 C          -4.6805  -18.1347   34.5760 C.2     1  UNL1        0.0000
    352 C          -9.2622   -4.1487   32.5529 C.ar    1  UNL1        0.0000
    353 C          -0.1604  -10.4022   34.0393 C.ar    1  UNL1        0.0000
    354 C         -13.8806  -11.8398   33.1168 C.3     1  UNL1        0.0000
    355 C          -3.5941  -18.9986   34.9368 C.3     1  UNL1        0.0000
    356 C         -10.3411   -3.3097   32.1974 C.ar    1  UNL1        0.0000
    357 C          -8.9655   -4.4003   33.8882 C.ar    1  UNL1        0.0000
    358 C          -4.9558  -17.8992   33.2089 C.3     1  UNL1        0.0000
    359 C           1.2783  -11.3450   32.2810 C.ar    1  UNL1        0.0000
    360 C         -15.2786  -10.9030   34.8808 C.3     1  UNL1        0.0000
    361 C          -6.3722   -9.9743   32.9733 C.ar    1  UNL1        0.0000
    362 C          -7.6733  -12.1593   34.1688 C.ar    1  UNL1        0.0000
    363 C          -2.5812   -4.6567   32.8788 C.ar    1  UNL1        0.0000
    364 C         -11.2492  -17.6770   34.2237 C.2     1  UNL1        0.0000
    365 C          -1.4259  -13.5655   26.9121 C.2     1  UNL1        0.0000
    366 C          -7.6909   -1.2028   26.9552 C.ar    1  UNL1        0.0000
    367 C           2.2609   -8.1360   26.7860 C.ar    1  UNL1        0.0000
    368 C         -11.3316   -6.6331   26.7750 C.2     1  UNL1        0.0000
    369 C          -5.6497   -8.8951   32.2790 C.3     1  UNL1        0.0000
    370 C          -8.3702  -13.3069   34.8214 C.3     1  UNL1        0.0000
    371 C          -3.2542   -5.6955   32.0907 C.3     1  UNL1        0.0000
    372 C         -10.6036  -16.5858   35.0049 C.2     1  UNL1        0.0000
    373 C          -1.3723  -12.0765   26.9153 C.2     1  UNL1        0.0000
    374 C          -7.7093   -2.6706   26.9091 C.3     1  UNL1        0.0000
    375 C           0.9719   -8.8450   26.8108 C.3     1  UNL1        0.0000
    376 C         -10.0333   -5.8976   26.8116 C.2     1  UNL1        0.0000
    377 C          -7.7419   -9.8466   33.3736 C.ar    1  UNL1        0.0000
    378 C          -6.3169  -12.2766   33.7959 C.ar    1  UNL1        0.0000
    379 C          -3.3012   -3.4834   33.2022 C.ar    1  UNL1        0.0000
    380 C         -10.5133  -18.8171   33.9205 C.3     1  UNL1        0.0000
    381 C          -1.5162  -14.2322   28.1287 C.3     1  UNL1        0.0000
    382 C         -12.4553   -7.9745   39.0954 C.2     1  UNL1        0.0000
    383 C           2.8391   -7.7583   28.0198 C.ar    1  UNL1        0.0000
    384 C         -16.7277  -14.4717   38.9065 C.3     7  UNL7        0.0000
    385 C          -1.2189   -4.7903   33.3025 C.ar    1  UNL1        0.0000
    386 C         -12.5946  -17.5504   33.8163 C.3     1  UNL1        0.0000
    387 C          -5.6935  -11.1933   33.2038 C.ar    1  UNL1        0.0000
    388 C          -8.3667  -10.9713   33.9626 C.ar    1  UNL1        0.0000
    389 C          -1.9337  -15.2661   38.9243 C.2     3  UNL3        0.0000
    390 C         -11.9770   -6.9873   27.9795 C.3     1  UNL1        0.0000
    391 C          -6.2597  -21.7588   39.0553 C.3     8  UNL8        0.0000
    392 C          -7.7307   -0.4776   28.1904 C.ar    1  UNL1        0.0000
    393 N          -8.4489   -8.6812   33.2420 N.pl3   1  UNL1        0.0000
    394 N          -7.8642   -1.0832   29.4073 N.pl3   1  UNL1        0.0000
    395 N          -2.4018  -15.6348   37.6923 N.pl3   3  UNL3        0.0000
    396 N          -0.4717   -5.9115   33.0660 N.pl3   1  UNL1        0.0000
    397 N          -1.2623   -9.7297   34.4820 N.pl3   1  UNL1        0.0000
    398 N          -3.2820  -19.3153   36.2267 N.3     1  UNL1        0.0000
    399 O          -1.7120   -9.2968   31.9073 O.3     1  UNL1        0.0000
    400 O         -12.3295  -12.9908   35.1571 O.2     1  UNL1        0.0000
    401 O          -5.2577  -17.6620   36.8337 O.2     1  UNL1        0.0000
    402 O          -8.7473   -4.6043   30.2746 O.3     1  UNL1        0.0000
    403 O          -7.3927   -5.4528   31.8759 O.3     1  UNL1        0.0000
    404 O          -6.5059  -16.7374   35.1982 O.2     1  UNL1        0.0000
    405 O          -0.3761  -10.2492   30.3560 O.3     1  UNL1        0.0000
    406 O         -13.5046  -11.8968   36.7517 O.2     1  UNL1        0.0000
    407 O          -3.0474   -9.9264   29.5581 O.3     1  UNL1        0.0000
    408 O         -10.8550  -12.3366   37.4437 O.3     1  UNL1        0.0000
    409 O          -1.6341   -7.9101   29.4912 O.3     1  UNL1        0.0000
    410 O         -12.3435  -14.2850   37.6278 O.3     1  UNL1        0.0000
    411 O          -7.9036  -17.4682   37.4506 O.3     1  UNL1        0.0000
    412 O          -6.1013   -4.7367   29.5873 O.3     1  UNL1        0.0000
    413 O          -6.6671  -15.3570   37.7037 O.3     1  UNL1        0.0000
    414 O          -7.2581   -6.9045   29.4295 O.3     1  UNL1        0.0000
    415 O          -4.4061   -9.0832   31.9890 O.3     1  UNL1        0.0000
    416 O          -9.6297  -13.2271   35.0088 O.3     1  UNL1        0.0000
    417 O          -2.6252   -6.7551   31.7643 O.3     1  UNL1        0.0000
    418 O         -11.3316  -15.6132   35.3926 O.2     1  UNL1        0.0000
    419 O          -6.2459  -18.9534   39.1449 O.3     1  UNL1        0.0000
    420 O          -7.8037   -3.3379   27.9973 O.3     1  UNL1        0.0000
    421 O          -4.4506  -16.6302   39.0625 O.3     1  UNL1        0.0000
    422 O          -9.4965   -5.7324   27.9659 O.2     1  UNL1        0.0000
    423 O          -4.4835   -5.4995   31.7371 O.3     1  UNL1        0.0000
    424 O          -9.3563  -16.6802   35.2561 O.2     1  UNL1        0.0000
    425 O          -6.2722   -7.8168   31.9764 O.3     1  UNL1        0.0000
    426 O          -7.6500  -14.3090   35.1637 O.3     1  UNL1        0.0000
    427 O           0.4520   -9.1308   27.9553 O.3     1  UNL1        0.0000
    428 O         -14.3850  -12.9693   39.0782 O.3     1  UNL1        0.0000
    429 O          -1.3184  -11.4758   28.0332 O.2     1  UNL1        0.0000
    430 O         -12.4713  -10.7334   39.1256 O.3     1  UNL1        0.0000
    431 O          -4.5729   -7.4301   29.7187 O.3     1  UNL1        0.0000
    432 O          -9.3944  -14.7954   37.3246 O.3     1  UNL1        0.0000
    433 O          -2.1565   -9.0004   26.9041 O.3     1  UNL1        0.0000
    434 O          -6.9329   -5.7826   26.8194 O.3     1  UNL1        0.0000
    435 H          -9.1860  -11.7634   39.2545 H       9  UNL9        0.0000
    436 H          -7.7287  -12.2044   36.9325 H       9  UNL9        0.0000
    437 C          -8.1584  -12.0800   39.1170 C.2     9  UNL9        0.0000
    438 H          -5.1725  -11.1648   36.2577 H       9  UNL9        0.0000
    439 C          -7.4395  -12.2969   37.9702 C.2     9  UNL9        0.0000
    440 H          -7.9666  -11.2204   41.8264 H       9  UNL9        0.0000
    441 N          -7.3072  -12.3567   40.1760 N.pl3   9  UNL9        0.0000
    442 C          -4.4359  -11.7308   36.8423 C.3     9  UNL9        0.0000
    443 H          -4.0261  -11.0895   37.6316 H       9  UNL9        0.0000
    444 C          -7.6619  -12.2479   41.5990 C.3     9  UNL9        0.0000
    445 N          -6.1638  -12.6860   38.3395 N.pl3   9  UNL9        0.0000
    446 H          -8.4885  -12.9323   41.8215 H       9  UNL9        0.0000
    447 H          -3.6210  -12.0109   36.1592 H       9  UNL9        0.0000
    448 C          -6.1092  -12.7270   39.6825 C.3     9  UNL9        0.0000
    449 C          -5.0470  -13.0038   37.4190 C.3     9  UNL9        0.0000
    450 H          -5.4571  -13.6632   36.6450 H       9  UNL9        0.0000
    451 H          -6.7945  -12.5316   42.2029 H       9  UNL9        0.0000
    452 H          -5.2476  -13.0064   40.2753 H       9  UNL9        0.0000
    453 H          -4.3235  -13.5919   37.9960 H       9  UNL9        0.0000
    454 TI         -9.1692   17.4891   11.5235 Ti      1  UNL1        0.0000
    455 TI          1.9088   20.5518    1.9128 Ti      1  UNL1        0.0000
    456 TI         -4.6243   14.1743    9.6276 Ti      1  UNL1        0.0000
    457 TI         -2.6834   23.8656    3.8044 Ti      1  UNL1        0.0000
    458 TI         -4.3561   24.7540    1.8373 Ti      1  UNL1        0.0000
    459 TI         -3.1531   13.0096   11.5968 Ti      1  UNL1        0.0000
    460 TI         -7.7220   16.1887    9.6244 Ti      1  UNL1        0.0000
    461 TI          0.1929   21.5955    3.7615 Ti      1  UNL1        0.0000
    462 H          -2.5214   16.8571    7.1475 H       1  UNL1        0.0000
    463 H          -6.2070   11.1872    7.4332 H       1  UNL1        0.0000
    464 H          -1.0575   26.6514    6.0344 H       1  UNL1        0.0000
    465 H          -9.1567   21.5093   11.3553 H       1  UNL1        0.0000
    466 H           1.7349   16.4217    2.2224 H       1  UNL1        0.0000
    467 H         -12.9221   15.8766   11.1746 H       1  UNL1        0.0000
    468 H           5.5813   22.0296    2.1016 H       1  UNL1        0.0000
    469 H          -2.9218    8.8534   11.2923 H       1  UNL1        0.0000
    470 H          -8.2596   23.3701    2.1035 H       1  UNL1        0.0000
    471 H          -1.3821   18.8146    6.0619 H       1  UNL1        0.0000
    472 H          -6.1353   19.1588    7.4479 H       1  UNL1        0.0000
    473 H          -9.8733   13.4199    7.2442 H       1  UNL1        0.0000
    474 H          -3.4904   23.3304   -0.0835 H       1  UNL1        0.0000
    475 H           0.8887   22.0160    0.0873 H       1  UNL1        0.0000
    476 H          -5.7497   15.8493   11.1934 H       1  UNL1        0.0000
    477 H          -1.7516   22.1155    2.2085 H       1  UNL1        0.0000
    478 H          -2.5155   12.8292    6.1491 H       1  UNL1        0.0000
    479 H          -4.8546   25.0174    7.3050 H       1  UNL1        0.0000
    480 H         -12.1979   19.2989    9.1195 H       1  UNL1        0.0000
    481 H           4.7451   18.6012    4.3936 H       1  UNL1        0.0000
    482 H          -9.7347   17.6498    6.0062 H       1  UNL1        0.0000
    483 H          -7.2844   26.9425    4.3243 H       1  UNL1        0.0000
    484 H          -6.1806   21.3555    6.5342 H       1  UNL1        0.0000
    485 H          -4.7672   22.1197    5.8373 H       1  UNL1        0.0000
    486 H          -4.5208   27.9717    2.6250 H       1  UNL1        0.0000
    487 H           1.6988   14.3676    3.4220 H       1  UNL1        0.0000
    488 H           1.2765   14.8692   10.0486 H       1  UNL1        0.0000
    489 H          -0.0747   14.0614   10.8162 H       1  UNL1        0.0000
    490 H           3.8008   24.2033    6.3961 H       1  UNL1        0.0000
    491 H           2.4292   23.4717    5.5873 H       1  UNL1        0.0000
    492 H           1.9283   20.5619    8.6413 H       1  UNL1        0.0000
    493 H           1.4327   20.8284    6.9780 H       1  UNL1        0.0000
    494 H           0.8429   10.2432    9.5952 H       1  UNL1        0.0000
    495 H          -0.4929   11.2356   10.1562 H       1  UNL1        0.0000
    496 C           2.5808   20.0504    4.7582 C.3     1  UNL1        0.0000
    497 C         -10.0021   17.8560    8.7045 C.2     1  UNL1        0.0000
    498 C          -2.2577   12.5908    8.7584 C.3     1  UNL1        0.0000
    499 C          -5.1431   25.2970    4.6723 C.3     1  UNL1        0.0000
    500 C           3.4134   19.4779    5.8265 C.ar    1  UNL1        0.0000
    501 C         -10.8931   18.4319    7.6602 C.2     1  UNL1        0.0000
    502 C          -1.4073   11.9348    7.7518 C.ar    1  UNL1        0.0000
    503 C          -5.9890   25.9208    5.7287 C.ar    1  UNL1        0.0000
    504 C           3.1129   19.6673    7.2151 C.ar    1  UNL1        0.0000
    505 C         -10.6074   18.2297    6.2926 C.3     1  UNL1        0.0000
    506 C          -0.3209   11.0709    8.1126 C.ar    1  UNL1        0.0000
    507 C          -7.0679   26.7598    5.3731 C.ar    1  UNL1        0.0000
    508 C          -5.6922   25.6692    7.0640 C.ar    1  UNL1        0.0000
    509 C          -1.6826   12.1703    6.3847 C.ar    1  UNL1        0.0000
    510 C           4.5516   18.7245    5.4567 C.ar    1  UNL1        0.0000
    511 C         -12.0054   19.1665    8.0566 C.3     1  UNL1        0.0000
    512 C          -3.0989   20.0952    6.1491 C.ar    1  UNL1        0.0000
    513 C          -4.4000   17.9102    7.3445 C.ar    1  UNL1        0.0000
    514 C           0.6920   25.4128    6.0546 C.ar    1  UNL1        0.0000
    515 C          -7.9760   12.3925    7.3994 C.2     1  UNL1        0.0000
    516 C           1.8474   16.5040    0.0879 C.2     1  UNL1        0.0000
    517 C          -4.4176   28.8667    0.1310 C.2     1  UNL1        0.0000
    518 C           5.5341   21.9335   -0.0382 C.2     1  UNL1        0.0000
    519 C          -8.0583   23.4364   -0.0492 C.2     1  UNL1        0.0000
    520 C          -2.3764   21.1744    5.4547 C.3     1  UNL1        0.0000
    521 C          -5.0970   16.7626    7.9972 C.3     1  UNL1        0.0000
    522 C           0.0190   24.3740    5.2665 C.3     1  UNL1        0.0000
    523 C          -7.3304   13.4837    8.1807 C.2     1  UNL1        0.0000
    524 C           1.9010   17.9930    0.0911 C.2     1  UNL1        0.0000
    525 C          -4.4360   27.3989    0.0849 C.2     1  UNL1        0.0000
    526 C           4.2452   21.2245   -0.0134 C.2     1  UNL1        0.0000
    527 C          -6.7601   24.1719   -0.0126 C.2     1  UNL1        0.0000
    528 C          -4.4687   20.2229    6.5494 C.ar    1  UNL1        0.0000
    529 C          -3.0437   17.7929    6.9717 C.ar    1  UNL1        0.0000
    530 C          -0.0280   26.5861    6.3780 C.ar    1  UNL1        0.0000
    531 C          -7.2401   11.2524    7.0963 C.3     1  UNL1        0.0000
    532 C           1.7570   15.8373    1.3045 C.2     1  UNL1        0.0000
    533 C          -9.1820   22.0950   12.2712 C.ar    1  UNL1        0.0000
    534 C           6.1124   22.3112    1.1955 C.2     1  UNL1        0.0000
    535 C         -13.4544   15.5978   12.0823 C.3     1  UNL1        0.0000
    536 C           2.0543   25.2792    6.4782 C.ar    1  UNL1        0.0000
    537 C          -9.3214   12.5191    6.9921 C.3     1  UNL1        0.0000
    538 C          -2.4203   18.8762    6.3796 C.ar    1  UNL1        0.0000
    539 C          -5.0934   19.0982    7.1384 C.ar    1  UNL1        0.0000
    540 C           1.3395   14.8034   12.1001 C.ar    1  UNL1        0.0000
    541 C          -8.7038   23.0822    1.1553 C.3     1  UNL1        0.0000
    542 C          -2.9864    8.3107   12.2310 C.ar    1  UNL1        0.0000
    543 C          -4.4574   29.5919    1.3662 C.2     1  UNL1        0.0000
    544 N          -5.1756   21.3883    6.4177 N.pl3   1  UNL1        0.0000
    545 N          -4.5910   28.9863    2.5831 N.pl3   1  UNL1        0.0000
    546 N           0.8714   14.4347   10.8681 N.pl3   1  UNL1        0.0000
    547 N           2.8015   24.1580    6.2417 N.pl3   1  UNL1        0.0000
    548 N           2.0109   20.3398    7.6577 N.pl3   1  UNL1        0.0000
    549 N          -0.0088   10.7542    9.4025 N.pl3   1  UNL1        0.0000
    550 O           1.5612   20.7727    5.0831 O.3     1  UNL1        0.0000
    551 O          -9.0562   17.0787    8.3329 O.2     1  UNL1        0.0000
    552 O          -1.9845   12.4075   10.0094 O.3     1  UNL1        0.0000
    553 O          -5.4741   25.4652    3.4504 O.3     1  UNL1        0.0000
    554 O          -4.1195   24.6167    5.0517 O.3     1  UNL1        0.0000
    555 O          -3.2326   13.3321    8.3739 O.3     1  UNL1        0.0000
    556 O           2.8972   19.8203    3.5318 O.3     1  UNL1        0.0000
    557 O         -10.2314   18.1726    9.9274 O.2     1  UNL1        0.0000
    558 O           0.2258   20.1431    2.7339 O.3     1  UNL1        0.0000
    559 O          -7.5817   17.7329   10.6194 O.3     1  UNL1        0.0000
    560 O           1.6391   22.1594    2.6670 O.3     1  UNL1        0.0000
    561 O          -9.0703   15.7845   10.8036 O.3     1  UNL1        0.0000
    562 O          -4.6304   12.6013   10.6264 O.3     1  UNL1        0.0000
    563 O          -2.8280   25.3328    2.7631 O.3     1  UNL1        0.0000
    564 O          -3.3938   14.7125   10.8795 O.3     1  UNL1        0.0000
    565 O          -3.9848   23.1650    2.6052 O.3     1  UNL1        0.0000
    566 O          -1.1329   20.9863    5.1648 O.3     1  UNL1        0.0000
    567 O          -6.3565   16.8424    8.1845 O.3     1  UNL1        0.0000
    568 O           0.6480   23.3144    4.9401 O.3     1  UNL1        0.0000
    569 O          -8.0584   14.4563    8.5683 O.2     1  UNL1        0.0000
    570 O          -2.9727   11.1161   12.3207 O.3     1  UNL1        0.0000
    571 O          -4.5305   26.7316    1.1731 O.2     1  UNL1        0.0000
    572 O          -1.1773   13.4393   12.2383 O.3     1  UNL1        0.0000
    573 O          -6.2233   24.3371    1.1417 O.2     1  UNL1        0.0000
    574 O          -1.2103   24.5700    4.9129 O.3     1  UNL1        0.0000
    575 O          -6.0830   13.3893    8.4319 O.2     1  UNL1        0.0000
    576 O          -2.9990   22.2527    5.1522 O.3     1  UNL1        0.0000
    577 O          -4.3767   15.7604    8.3395 O.3     1  UNL1        0.0000
    578 O           3.7252   20.9387    1.1311 O.2     1  UNL1        0.0000
    579 O         -11.1117   17.1002   12.2540 O.2     1  UNL1        0.0000
    580 O           1.9548   18.5937    1.2090 O.2     1  UNL1        0.0000
    581 O          -9.1980   19.3361   12.3014 O.3     1  UNL1        0.0000
    582 O          -1.2997   22.6394    2.8945 O.3     1  UNL1        0.0000
    583 O          -6.1212   15.2741   10.5004 O.3     1  UNL1        0.0000
    584 O           1.1168   21.0691    0.0799 O.3     1  UNL1        0.0000
    585 O          -3.6596   24.2869   -0.0049 O.3     1  UNL1        0.0000
    586 H          -5.9127   18.3061   12.4303 H      10  UNL10       0.0000
    587 H          -4.4555   17.8651   10.1083 H      10  UNL10       0.0000
    588 C          -4.8852   17.9895   12.2927 C.2    10  UNL10       0.0000
    589 H          -1.8993   18.9047    9.4335 H      10  UNL10       0.0000
    590 C          -4.1662   17.7726   11.1460 C.2    10  UNL10       0.0000
    591 H          -4.6934   18.8491   15.0022 H      10  UNL10       0.0000
    592 N          -4.0340   17.7128   13.3518 N.pl3  10  UNL10       0.0000
    593 C          -1.1627   18.3387   10.0181 C.3    10  UNL10       0.0000
    594 H          -0.7529   18.9800   10.8074 H      10  UNL10       0.0000
    595 C          -4.3886   17.8216   14.7748 C.3    10  UNL10       0.0000
    596 N          -2.8906   17.3835   11.5153 N.pl3  10  UNL10       0.0000
    597 H          -5.2152   17.1372   14.9973 H      10  UNL10       0.0000
    598 H          -0.3478   18.0586    9.3350 H      10  UNL10       0.0000
    599 C          -2.8359   17.3425   12.8583 C.3    10  UNL10       0.0000
    600 C          -1.7738   17.0657   10.5947 C.3    10  UNL10       0.0000
    601 H          -2.1839   16.4063    9.8208 H      10  UNL10       0.0000
    602 H          -3.5213   17.5379   15.3787 H      10  UNL10       0.0000
    603 H          -1.9744   17.0630   13.4511 H      10  UNL10       0.0000
    604 H          -1.0503   16.4776   11.1718 H      10  UNL10       0.0000
    605 TI        -13.9055   10.0243   24.9356 Ti      1  UNL1        0.0000
    606 TI         -2.8275   13.0871   15.3249 Ti      1  UNL1        0.0000
    607 TI         -9.3606    6.7096   23.0397 Ti      1  UNL1        0.0000
    608 TI         -7.4197   16.4008   17.2165 Ti      1  UNL1        0.0000
    609 TI         -9.0923   17.2893   15.2494 Ti      1  UNL1        0.0000
    610 TI         -7.8893    5.5449   25.0089 Ti      1  UNL1        0.0000
    611 TI        -12.4583    8.7240   23.0365 Ti      1  UNL1        0.0000
    612 TI         -4.5433   14.1308   17.1736 Ti      1  UNL1        0.0000
    613 H          -7.2577    9.3923   20.5596 H       1  UNL1        0.0000
    614 H         -10.9433    3.7225   20.8453 H       1  UNL1        0.0000
    615 H          -5.7938   19.1867   19.4465 H       1  UNL1        0.0000
    616 H         -13.8930   14.0446   24.7674 H       1  UNL1        0.0000
    617 H          -3.0014    8.9570   15.6345 H       1  UNL1        0.0000
    618 H         -17.6584    8.4119   24.5867 H       1  UNL1        0.0000
    619 H           0.8450   14.5649   15.5137 H       1  UNL1        0.0000
    620 H          -7.6580    1.3886   24.7045 H       1  UNL1        0.0000
    621 H         -12.9959   15.9054   15.5156 H       1  UNL1        0.0000
    622 H          -6.1184   11.3499   19.4740 H       1  UNL1        0.0000
    623 H         -10.8716   11.6940   20.8600 H       1  UNL1        0.0000
    624 H         -14.6096    5.9552   20.6563 H       1  UNL1        0.0000
    625 H          -8.2266   15.8656   13.3287 H       1  UNL1        0.0000
    626 H          -3.8475   14.5513   13.4994 H       1  UNL1        0.0000
    627 H         -10.4860    8.3845   24.6055 H       1  UNL1        0.0000
    628 H          -6.4878   14.6507   15.6206 H       1  UNL1        0.0000
    629 H          -7.2518    5.3645   19.5612 H       1  UNL1        0.0000
    630 H          -9.5909   17.5527   20.7171 H       1  UNL1        0.0000
    631 H         -16.9341   11.8342   22.5316 H       1  UNL1        0.0000
    632 H           0.0088   11.1365   17.8057 H       1  UNL1        0.0000
    633 H         -14.4709   10.1850   19.4183 H       1  UNL1        0.0000
    634 H         -12.0206   19.4778   17.7364 H       1  UNL1        0.0000
    635 H         -10.9168   13.8908   19.9463 H       1  UNL1        0.0000
    636 H          -9.5035   14.6549   19.2494 H       1  UNL1        0.0000
    637 H          -9.2571   20.5069   16.0371 H       1  UNL1        0.0000
    638 H          -3.0375    6.9029   16.8341 H       1  UNL1        0.0000
    639 H          -3.4597    7.4045   23.4607 H       1  UNL1        0.0000
    640 H          -4.8109    6.5967   24.2283 H       1  UNL1        0.0000
    641 H          -0.9354   16.7386   19.8082 H       1  UNL1        0.0000
    642 H          -2.3071   16.0070   18.9994 H       1  UNL1        0.0000
    643 H          -2.8080   13.0971   22.0534 H       1  UNL1        0.0000
    644 H          -3.3036   13.3637   20.3901 H       1  UNL1        0.0000
    645 H          -3.8933    2.7785   23.0073 H       1  UNL1        0.0000
    646 H          -5.2292    3.7709   23.5683 H       1  UNL1        0.0000
    647 C          -2.1555   12.5857   18.1703 C.3     1  UNL1        0.0000
    648 C         -14.7383   10.3913   22.1166 C.2     1  UNL1        0.0000
    649 C          -6.9940    5.1261   22.1705 C.3     1  UNL1        0.0000
    650 C          -9.8794   17.8323   18.0844 C.3     1  UNL1        0.0000
    651 C          -1.3229   12.0132   19.2386 C.ar    1  UNL1        0.0000
    652 C         -15.6294   10.9671   21.0723 C.2     1  UNL1        0.0000
    653 C          -6.1435    4.4701   21.1639 C.ar    1  UNL1        0.0000
    654 C         -10.7253   18.4560   19.1408 C.ar    1  UNL1        0.0000
    655 C          -1.6234   12.2026   20.6272 C.ar    1  UNL1        0.0000
    656 C         -15.3437   10.7649   19.7047 C.3     1  UNL1        0.0000
    657 C          -5.0571    3.6062   21.5247 C.ar    1  UNL1        0.0000
    658 C         -11.8041   19.2951   18.7852 C.ar    1  UNL1        0.0000
    659 C         -10.4285   18.2045   20.4761 C.ar    1  UNL1        0.0000
    660 C          -6.4189    4.7055   19.7968 C.ar    1  UNL1        0.0000
    661 C          -0.1847   11.2598   18.8688 C.ar    1  UNL1        0.0000
    662 C         -16.7416   11.7018   21.4687 C.3     1  UNL1        0.0000
    663 C          -7.8352   12.6304   19.5612 C.ar    1  UNL1        0.0000
    664 C          -9.1363   10.4455   20.7567 C.ar    1  UNL1        0.0000
    665 C          -4.0442   17.9481   19.4667 C.ar    1  UNL1        0.0000
    666 C         -12.7123    4.9278   20.8116 C.2     1  UNL1        0.0000
    667 C          -2.8889    9.0393   13.5000 C.ar    1  UNL1        0.0000
    668 C          -9.1539   21.4019   13.5431 C.ar    1  UNL1        0.0000
    669 C           0.7979   14.4688   13.3739 C.ar    1  UNL1        0.0000
    670 C         -12.7946   15.9717   13.3629 C.2     1  UNL1        0.0000
    671 C          -7.1127   13.7097   18.8668 C.3     1  UNL1        0.0000
    672 C          -9.8332    9.2978   21.4093 C.3     1  UNL1        0.0000
    673 C          -4.7173   16.9092   18.6786 C.3     1  UNL1        0.0000
    674 C         -12.0666    6.0190   21.5928 C.2     1  UNL1        0.0000
    675 C          -2.8353   10.5283   13.5032 C.3     1  UNL1        0.0000
    676 C          -9.1723   19.9341   13.4970 C.3     1  UNL1        0.0000
    677 C          -0.4911   13.7597   13.3987 C.3     1  UNL1        0.0000
    678 C         -11.4964   16.7072   13.3995 C.2     1  UNL1        0.0000
    679 C          -9.2050   12.7582   19.9615 C.ar    1  UNL1        0.0000
    680 C          -7.7799   10.3281   20.3838 C.ar    1  UNL1        0.0000
    681 C          -4.7643   19.1213   19.7901 C.ar    1  UNL1        0.0000
    682 C         -11.9763    3.7876   20.5084 C.3     1  UNL1        0.0000
    683 C          -2.9792    8.3726   14.7166 C.ar    1  UNL1        0.0000
    684 C         -13.9183   14.6303   25.6833 C.ar    1  UNL1        0.0000
    685 C           1.3761   14.8465   14.6077 C.ar    1  UNL1        0.0000
    686 C         -18.1907    8.1330   25.4944 C.3     1  UNL1        0.0000
    687 C          -2.6820   17.8145   19.8903 C.ar    1  UNL1        0.0000
    688 C         -14.0577    5.0544   20.4042 C.3     1  UNL1        0.0000
    689 C          -7.1565   11.4115   19.7917 C.ar    1  UNL1        0.0000
    690 C          -9.8297   11.6335   20.5505 C.ar    1  UNL1        0.0000
    691 C          -3.3967    7.3387   25.5122 C.ar    1  UNL1        0.0000
    692 C         -13.4401   15.6175   14.5674 C.3     1  UNL1        0.0000
    693 C          -7.7227    0.8459   25.6431 C.ar    1  UNL1        0.0000
    694 C          -9.1937   22.1272   14.7783 C.ar    1  UNL1        0.0000
    695 N          -9.9119   13.9236   19.8299 N.pl3   1  UNL1        0.0000
    696 N          -9.3272   21.5216   15.9952 N.pl3   1  UNL1        0.0000
    697 N          -3.8648    6.9699   24.2802 N.pl3   1  UNL1        0.0000
    698 N          -1.9348   16.6933   19.6538 N.pl3   1  UNL1        0.0000
    699 N          -2.7254   12.8751   21.0699 N.pl3   1  UNL1        0.0000
    700 N          -4.7451    3.2895   22.8146 N.pl3   1  UNL1        0.0000
    701 O          -3.1750   13.3080   18.4952 O.3     1  UNL1        0.0000
    702 O         -13.7925    9.6140   21.7450 O.2     1  UNL1        0.0000
    703 O          -6.7207    4.9428   23.4215 O.3     1  UNL1        0.0000
    704 O         -10.2104   18.0004   16.8625 O.3     1  UNL1        0.0000
    705 O          -8.8557   17.1520   18.4638 O.3     1  UNL1        0.0000
    706 O          -7.9689    5.8674   21.7860 O.3     1  UNL1        0.0000
    707 O          -1.8391   12.3556   16.9439 O.3     1  UNL1        0.0000
    708 O         -14.9677   10.7079   23.3396 O.2     1  UNL1        0.0000
    709 O          -4.5104   12.6784   16.1460 O.3     1  UNL1        0.0000
    710 O         -12.3180   10.2681   24.0316 O.3     1  UNL1        0.0000
    711 O          -3.0972   14.6947   16.0791 O.3     1  UNL1        0.0000
    712 O         -13.8065    8.3198   24.2157 O.3     1  UNL1        0.0000
    713 O          -9.3667    5.1366   24.0385 O.3     1  UNL1        0.0000
    714 O          -7.5643   17.8681   16.1752 O.3     1  UNL1        0.0000
    715 O          -8.1301    7.2478   24.2916 O.3     1  UNL1        0.0000
    716 O          -8.7211   15.7003   16.0173 O.3     1  UNL1        0.0000
    717 O          -5.8691   13.5216   18.5769 O.3     1  UNL1        0.0000
    718 O         -11.0928    9.3777   21.5966 O.3     1  UNL1        0.0000
    719 O          -4.0883   15.8497   18.3522 O.3     1  UNL1        0.0000
    720 O         -12.7946    6.9916   21.9804 O.2     1  UNL1        0.0000
    721 O          -7.7090    3.6513   25.7328 O.3     1  UNL1        0.0000
    722 O          -9.2667   19.2669   14.5852 O.3     1  UNL1        0.0000
    723 O          -5.9136    5.9745   25.6504 O.3     1  UNL1        0.0000
    724 O         -10.9596   16.8724   14.5538 O.2     1  UNL1        0.0000
    725 O          -5.9466   17.1053   18.3250 O.3     1  UNL1        0.0000
    726 O         -10.8193    5.9245   21.8440 O.2     1  UNL1        0.0000
    727 O          -7.7352   14.7880   18.5643 O.3     1  UNL1        0.0000
    728 O          -9.1130    8.2957   21.7516 O.3     1  UNL1        0.0000
    729 O          -1.0110   13.4740   14.5432 O.3     1  UNL1        0.0000
    730 O         -15.8480    9.6355   25.6661 O.2     1  UNL1        0.0000
    731 O          -2.7814   11.1290   14.6211 O.3     1  UNL1        0.0000
    732 O         -13.9343   11.8714   25.7135 O.3     1  UNL1        0.0000
    733 O          -6.0359   15.1747   16.3066 O.3     1  UNL1        0.0000
    734 O         -10.8574    7.8094   23.9125 O.3     1  UNL1        0.0000
    735 O          -3.6195   13.6043   13.4920 O.3     1  UNL1        0.0000
    736 O          -8.3959   16.8221   13.4072 O.3     1  UNL1        0.0000
    737 H         -10.6490   10.8413   25.8424 H      11  UNL11       0.0000
    738 H          -9.1917   10.4004   23.5204 H      11  UNL11       0.0000
    739 C          -9.6214   10.5247   25.7048 C.2    11  UNL11       0.0000
    740 H          -6.6355   11.4400   22.8456 H      11  UNL11       0.0000
    741 C          -8.9025   10.3079   24.5581 C.2    11  UNL11       0.0000
    742 H          -9.4296   11.3844   28.4143 H      11  UNL11       0.0000
    743 N          -8.7703   10.2480   26.7639 N.pl3  11  UNL11       0.0000
    744 C          -5.8989   10.8740   23.4302 C.3    11  UNL11       0.0000
    745 H          -5.4891   11.5153   24.2195 H      11  UNL11       0.0000
    746 C          -9.1249   10.3569   28.1869 C.3    11  UNL11       0.0000
    747 N          -7.6268    9.9188   24.9274 N.pl3  11  UNL11       0.0000
    748 H          -9.9515    9.6725   28.4094 H      11  UNL11       0.0000
    749 H          -5.0841   10.5938   22.7471 H      11  UNL11       0.0000
    750 C          -7.5722    9.8778   26.2704 C.3    11  UNL11       0.0000
    751 C          -6.5101    9.6010   24.0069 C.3    11  UNL11       0.0000
    752 H          -6.9202    8.9416   23.2329 H      11  UNL11       0.0000
    753 H          -8.2575   10.0731   28.7908 H      11  UNL11       0.0000
    754 H          -6.7106    9.5983   26.8632 H      11  UNL11       0.0000
    755 H          -5.7865    9.0128   24.5839 H      11  UNL11       0.0000
    756 TI        -18.6417    2.5596   38.3477 Ti      1  UNL1        0.0000
    757 TI         -7.5637    5.6224   28.7370 Ti      1  UNL1        0.0000
    758 TI        -14.0968   -0.7552   36.4518 Ti      1  UNL1        0.0000
    759 TI        -12.1560    8.9361   30.6286 Ti      1  UNL1        0.0000
    760 TI        -13.8286    9.8246   28.6615 Ti      1  UNL1        0.0000
    761 TI        -12.6256   -1.9199   38.4211 Ti      1  UNL1        0.0000
    762 TI        -17.1945    1.2593   36.4486 Ti      1  UNL1        0.0000
    763 TI         -9.2796    6.6661   30.5857 Ti      1  UNL1        0.0000
    764 H         -11.9939    1.9276   33.9718 H       1  UNL1        0.0000
    765 H         -15.6795   -3.7423   34.2574 H       1  UNL1        0.0000
    766 H         -10.5301   11.7219   32.8586 H       1  UNL1        0.0000
    767 H         -18.6293    6.5799   38.1795 H       5  UNL5        0.0000
    768 H          -7.7376    1.4923   29.0466 H       1  UNL1        0.0000
    769 H         -22.3947    0.9472   37.9988 H       6  UNL6        0.0000
    770 H          -3.8912    7.1002   28.9258 H       1  UNL1        0.0000
    771 H         -12.3943   -6.0761   38.1166 H       1  UNL1        0.0000
    772 H         -17.7322    8.4407   28.9277 H       1  UNL1        0.0000
    773 H         -10.8546    3.8851   32.8862 H       1  UNL1        0.0000
    774 H         -15.6079    4.2293   34.2721 H       1  UNL1        0.0000
    775 H         -19.3459   -1.5095   34.0684 H       1  UNL1        0.0000
    776 H         -12.9629    8.4009   26.7408 H       1  UNL1        0.0000
    777 H          -8.5838    7.0865   26.9115 H       1  UNL1        0.0000
    778 H         -15.2223    0.9198   38.0176 H       1  UNL1        0.0000
    779 H         -11.2241    7.1860   29.0328 H       1  UNL1        0.0000
    780 H         -11.9880   -2.1002   32.9733 H       1  UNL1        0.0000
    781 H         -14.3271   10.0880   34.1292 H       1  UNL1        0.0000
    782 H         -21.6704    4.3694   35.9437 H       1  UNL1        0.0000
    783 H          -4.7274    3.6718   31.2178 H       1  UNL1        0.0000
    784 H         -19.2072    2.7203   32.8304 H       1  UNL1        0.0000
    785 H         -16.7569   12.0131   31.1485 H       1  UNL1        0.0000
    786 H         -15.6531    6.4261   33.3584 H       1  UNL1        0.0000
    787 H         -14.2397    7.1902   32.6615 H       1  UNL1        0.0000
    788 H         -13.9934   13.0422   29.4492 H       1  UNL1        0.0000
    789 H          -7.7738   -0.5618   30.2462 H       1  UNL1        0.0000
    790 H          -8.1960   -0.0603   36.8729 H       7  UNL7        0.0000
    791 H          -9.5472   -0.8681   37.6404 H       7  UNL7        0.0000
    792 H          -5.6717    9.2739   33.2204 H       1  UNL1        0.0000
    793 H          -7.0433    8.5423   32.4115 H       1  UNL1        0.0000
    794 H          -7.5443    5.6324   35.4656 H       1  UNL1        0.0000
    795 H          -8.0399    5.8990   33.8022 H       1  UNL1        0.0000
    796 H          -8.6296   -4.6862   36.4194 H       1  UNL1        0.0000
    797 H          -9.9654   -3.6938   36.9805 H       1  UNL1        0.0000
    798 C          -6.8917    5.1209   31.5824 C.3     1  UNL1        0.0000
    799 C         -19.4746    2.9266   35.5287 C.2     1  UNL1        0.0000
    800 C         -11.7302   -2.3386   35.5826 C.3     1  UNL1        0.0000
    801 C         -14.6156   10.3675   31.4965 C.3     1  UNL1        0.0000
    802 C          -6.0591    4.5485   32.6507 C.ar    1  UNL1        0.0000
    803 C         -20.3657    3.5024   34.4844 C.2     1  UNL1        0.0000
    804 C         -10.8798   -2.9947   34.5760 C.ar    1  UNL1        0.0000
    805 C         -15.4615   10.9913   32.5529 C.ar    1  UNL1        0.0000
    806 C          -6.3596    4.7379   34.0393 C.ar    1  UNL1        0.0000
    807 C         -20.0799    3.3002   33.1168 C.3     1  UNL1        0.0000
    808 C          -9.7934   -3.8585   34.9368 C.ar    1  UNL1        0.0000
    809 C         -16.5404   11.8304   32.1974 C.ar    1  UNL1        0.0000
    810 C         -15.1648   10.7397   33.8882 C.ar    1  UNL1        0.0000
    811 C         -11.1551   -2.7592   33.2089 C.ar    1  UNL1        0.0000
    812 C          -4.9210    3.7951   32.2810 C.ar    1  UNL1        0.0000
    813 C         -21.4779    4.2370   34.8808 C.3     1  UNL1        0.0000
    814 C         -12.5715    5.1657   32.9733 C.ar    1  UNL1        0.0000
    815 C         -13.8725    2.9808   34.1688 C.ar    1  UNL1        0.0000
    816 C          -8.7805   10.4833   32.8788 C.ar    1  UNL1        0.0000
    817 C         -17.4485   -2.5370   34.2237 C.2     1  UNL1        0.0000
    818 C          -7.6252    1.5746   26.9121 C.ar    1  UNL1        0.0000
    819 C         -13.8901   13.9372   26.9552 C.ar    1  UNL1        0.0000
    820 C          -3.9384    7.0041   26.7860 C.ar    1  UNL1        0.0000
    821 C         -17.5308    8.5070   26.7750 C.2     1  UNL1        0.0000
    822 C         -11.8490    6.2450   32.2790 C.3     1  UNL1        0.0000
    823 C         -14.5695    1.8331   34.8214 C.3     1  UNL1        0.0000
    824 C          -9.4535    9.4445   32.0907 C.3     1  UNL1        0.0000
    825 C         -16.8029   -1.4457   35.0049 C.2     1  UNL1        0.0000
    826 C          -7.5715    3.0636   26.9153 C.3     1  UNL1        0.0000
    827 C         -13.9086   12.4694   26.9091 C.3     1  UNL1        0.0000
    828 C          -5.2274    6.2950   26.8108 C.3     1  UNL1        0.0000
    829 C         -16.2326    9.2425   26.8116 C.2     1  UNL1        0.0000
    830 C         -13.9412    5.2935   33.3736 C.ar    1  UNL1        0.0000
    831 C         -12.5162    2.8634   33.7959 C.ar    1  UNL1        0.0000
    832 C          -9.5005   11.6566   33.2022 C.ar    1  UNL1        0.0000
    833 C         -16.7126   -3.6771   33.9205 C.3     1  UNL1        0.0000
    834 C          -7.7155    0.9079   28.1287 C.ar    1  UNL1        0.0000
    835 C         -18.6545    7.1655   39.0954 C.2     5  UNL5        0.0000
    836 C          -3.3601    7.3818   28.0198 C.ar    1  UNL1        0.0000
    837 C         -22.9270    0.6683   38.9065 C.3    12  UNL12       0.0000
    838 C          -7.4182   10.3498   33.3025 C.ar    1  UNL1        0.0000
    839 C         -18.7939   -2.4104   33.8163 C.3     1  UNL1        0.0000
    840 C         -11.8928    3.9468   33.2038 C.ar    1  UNL1        0.0000
    841 C         -14.5660    4.1688   33.9626 C.ar    1  UNL1        0.0000
    842 C          -8.1330   -0.1261   38.9243 C.2     7  UNL7        0.0000
    843 C         -18.1763    8.1527   27.9795 C.3     1  UNL1        0.0000
    844 C         -12.4589   -6.6188   39.0553 C.2     1  UNL1        0.0000
    845 C         -13.9299   14.6625   28.1904 C.ar    1  UNL1        0.0000
    846 N         -14.6481    6.4588   33.2420 N.pl3   1  UNL1        0.0000
    847 N         -14.0635   14.0568   29.4073 N.pl3   1  UNL1        0.0000
    848 N          -8.6011   -0.4948   37.6923 N.pl3   7  UNL7        0.0000
    849 N          -6.6710    9.2285   33.0660 N.pl3   1  UNL1        0.0000
    850 N          -7.4616    5.4104   34.4820 N.pl3   1  UNL1        0.0000
    851 N          -9.4813   -4.1753   36.2267 N.pl3   1  UNL1        0.0000
    852 O          -7.9113    5.8432   31.9073 O.3     1  UNL1        0.0000
    853 O         -18.5287    2.1493   35.1571 O.2     1  UNL1        0.0000
    854 O         -11.4570   -2.5220   36.8337 O.3     1  UNL1        0.0000
    855 O         -14.9466   10.5357   30.2746 O.3     1  UNL1        0.0000
    856 O         -13.5920    9.6873   31.8759 O.3     1  UNL1        0.0000
    857 O         -12.7051   -1.5973   35.1982 O.3     1  UNL1        0.0000
    858 O          -6.5754    4.8909   30.3560 O.3     1  UNL1        0.0000
    859 O         -19.7039    3.2432   36.7517 O.2     1  UNL1        0.0000
    860 O          -9.2467    5.2136   29.5581 O.3     1  UNL1        0.0000
    861 O         -17.0543    2.8034   37.4437 O.3     1  UNL1        0.0000
    862 O          -7.8334    7.2300   29.4912 O.3     1  UNL1        0.0000
    863 O         -18.5428    0.8550   37.6278 O.3     1  UNL1        0.0000
    864 O         -14.1029   -2.3281   37.4506 O.3     1  UNL1        0.0000
    865 O         -12.3006   10.4033   29.5873 O.3     1  UNL1        0.0000
    866 O         -12.8664   -0.2169   37.7037 O.3     1  UNL1        0.0000
    867 O         -13.4573    8.2356   29.4295 O.3     1  UNL1        0.0000
    868 O         -10.6054    6.0569   31.9890 O.3     1  UNL1        0.0000
    869 O         -15.8290    1.9130   35.0088 O.3     1  UNL1        0.0000
    870 O          -8.8245    8.3849   31.7643 O.3     1  UNL1        0.0000
    871 O         -17.5309   -0.4731   35.3926 O.2     1  UNL1        0.0000
    872 O         -12.4452   -3.8134   39.1449 O.3     1  UNL1        0.0000
    873 O         -14.0030   11.8022   27.9973 O.3     1  UNL1        0.0000
    874 O         -10.6498   -1.4902   39.0625 O.3     1  UNL1        0.0000
    875 O         -15.6958    9.4077   27.9659 O.2     1  UNL1        0.0000
    876 O         -10.6828    9.6405   31.7371 O.3     1  UNL1        0.0000
    877 O         -15.5556   -1.5402   35.2561 O.2     1  UNL1        0.0000
    878 O         -12.4715    7.3233   31.9764 O.3     1  UNL1        0.0000
    879 O         -13.8492    0.8310   35.1637 O.3     1  UNL1        0.0000
    880 O          -5.7473    6.0092   27.9553 O.3     1  UNL1        0.0000
    881 O         -20.5843    2.1708   39.0782 O.3     1  UNL1        0.0000
    882 O          -7.5177    3.6642   28.0332 O.3     1  UNL1        0.0000
    883 O         -18.6706    4.4066   39.1256 O.3     1  UNL1        0.0000
    884 O         -10.7722    7.7099   29.7187 O.3     1  UNL1        0.0000
    885 O         -15.5937    0.3447   37.3246 O.3     1  UNL1        0.0000
    886 O          -8.3557    6.1396   26.9041 O.3     1  UNL1        0.0000
    887 O         -13.1322    9.3574   26.8194 O.3     1  UNL1        0.0000
    888 H         -15.3853    3.3766   39.2545 H      13  UNL13       0.0000
    889 H         -13.9280    2.9357   36.9325 H      13  UNL13       0.0000
    890 C         -14.3577    3.0600   39.1170 C.2    13  UNL13       0.0000
    891 H         -11.3718    3.9753   36.2577 H      13  UNL13       0.0000
    892 C         -13.6388    2.8432   37.9702 C.2    13  UNL13       0.0000
    893 H         -14.1659    3.9196   41.8264 H      13  UNL13       0.0000
    894 N         -13.5065    2.7833   40.1760 N.pl3  13  UNL13       0.0000
    895 C         -10.6352    3.4093   36.8423 C.3    13  UNL13       0.0000
    896 H         -10.2254    4.0505   37.6316 H      13  UNL13       0.0000
    897 C         -13.8611    2.8922   41.5990 C.3    13  UNL13       0.0000
    898 N         -12.3631    2.4541   38.3395 N.pl3  13  UNL13       0.0000
    899 H         -14.6878    2.2077   41.8215 H      13  UNL13       0.0000
    900 H          -9.8203    3.1291   36.1592 H      13  UNL13       0.0000
    901 C         -12.3085    2.4131   39.6825 C.3    13  UNL13       0.0000
    902 C         -11.2463    2.1363   37.4190 C.3    13  UNL13       0.0000
    903 H         -11.6564    1.4768   36.6450 H      13  UNL13       0.0000
    904 H         -12.9938    2.6084   42.2029 H      13  UNL13       0.0000
    905 H         -11.4469    2.1336   40.2753 H      13  UNL13       0.0000
    906 H         -10.5228    1.5481   37.9960 H      13  UNL13       0.0000
    907 TI        -15.3685   32.6291   11.5235 Ti      1  UNL1        0.0000
    908 TI         -4.2905   35.6919    1.9128 Ti      1  UNL1        0.0000
    909 TI        -10.8236   29.3143    9.6276 Ti      1  UNL1        0.0000
    910 TI         -8.8827   39.0056    3.8044 Ti      1  UNL1        0.0000
    911 TI        -10.5553   39.8941    1.8373 Ti      1  UNL1        0.0000
    912 TI         -9.3524   28.1496   11.5968 Ti      1  UNL1        0.0000
    913 TI        -13.9213   31.3288    9.6244 Ti      1  UNL1        0.0000
    914 TI         -6.0063   36.7356    3.7615 Ti      1  UNL1        0.0000
    915 H          -8.7207   31.9971    7.1475 H       1  UNL1        0.0000
    916 H         -12.4063   26.3272    7.4332 H       1  UNL1        0.0000
    917 H          -7.2568   41.7914    6.0344 H       1  UNL1        0.0000
    918 H         -15.3560   36.6494   11.3553 H       1  UNL1        0.0000
    919 H          -4.4644   31.5618    2.2224 H       1  UNL1        0.0000
    920 H         -19.1214   31.0167   11.1746 H       1  UNL1        0.0000
    921 H          -0.6180   37.1697    2.1016 H       1  UNL1        0.0000
    922 H          -9.1210   23.9934   11.2923 H       1  UNL1        0.0000
    923 H         -14.4589   38.5102    2.1035 H       1  UNL1        0.0000
    924 H          -7.5814   33.9546    6.0619 H       1  UNL1        0.0000
    925 H         -12.3346   34.2988    7.4479 H       1  UNL1        0.0000
    926 H         -16.0726   28.5600    7.2442 H       1  UNL1        0.0000
    927 H          -9.6897   38.4704   -0.0835 H       1  UNL1        0.0000
    928 H          -5.3106   37.1560    0.0873 H       1  UNL1        0.0000
    929 H         -11.9490   30.9893   11.1934 H       1  UNL1        0.0000
    930 H          -7.9509   37.2555    2.2085 H       1  UNL1        0.0000
    931 H          -8.7148   27.9693    6.1491 H       1  UNL1        0.0000
    932 H         -11.0539   40.1575    7.3050 H       1  UNL1        0.0000
    933 H         -18.3971   34.4389    9.1195 H       1  UNL1        0.0000
    934 H          -1.4542   33.7413    4.3936 H       1  UNL1        0.0000
    935 H         -15.9340   32.7898    6.0062 H       1  UNL1        0.0000
    936 H         -13.4837   42.0826    4.3243 H       1  UNL1        0.0000
    937 H         -12.3799   36.4956    6.5342 H       1  UNL1        0.0000
    938 H         -10.9665   37.2597    5.8373 H       1  UNL1        0.0000
    939 H         -10.7201   43.1117    2.6250 H       1  UNL1        0.0000
    940 H          -4.5005   29.5077    3.4220 H       1  UNL1        0.0000
    941 H          -4.9227   30.0092   10.0486 H       1  UNL1        0.0000
    942 H          -6.2740   29.2014   10.8162 H       1  UNL1        0.0000
    943 H          -2.3985   39.3434    6.3961 H       1  UNL1        0.0000
    944 H          -3.7701   38.6117    5.5873 H       1  UNL1        0.0000
    945 H          -4.2710   35.7019    8.6413 H       1  UNL1        0.0000
    946 H          -4.7666   35.9684    6.9780 H       1  UNL1        0.0000
    947 H          -5.3564   25.3833    9.5952 H       1  UNL1        0.0000
    948 H          -6.6922   26.3757   10.1562 H       1  UNL1        0.0000
    949 C          -3.6185   35.1904    4.7582 C.3     1  UNL1        0.0000
    950 C         -16.2014   32.9961    8.7045 C.2     1  UNL1        0.0000
    951 C          -8.4570   27.7309    8.7584 C.3     1  UNL1        0.0000
    952 C         -11.3424   40.4370    4.6723 C.2     1  UNL1        0.0000
    953 C          -2.7859   34.6180    5.8265 C.ar    1  UNL1        0.0000
    954 C         -17.0924   33.5719    7.6602 C.2     1  UNL1        0.0000
    955 C          -7.6065   27.0748    7.7518 C.ar    1  UNL1        0.0000
    956 C         -12.1883   41.0608    5.7287 C.2     1  UNL1        0.0000
    957 C          -3.0864   34.8074    7.2151 C.ar    1  UNL1        0.0000
    958 C         -16.8067   33.3697    6.2926 C.3     1  UNL1        0.0000
    959 C          -6.5202   26.2110    8.1126 C.ar    1  UNL1        0.0000
    960 C         -13.2672   41.8999    5.3731 C.3     1  UNL1        0.0000
    961 C         -11.8915   40.8092    7.0640 C.3     1  UNL1        0.0000
    962 C          -7.8819   27.3103    6.3847 C.ar    1  UNL1        0.0000
    963 C          -1.6477   33.8646    5.4567 C.ar    1  UNL1        0.0000
    964 C         -18.2047   34.3065    8.0566 C.3     1  UNL1        0.0000
    965 C          -9.2982   35.2352    6.1491 C.ar    1  UNL1        0.0000
    966 C         -10.5993   33.0503    7.3445 C.ar    1  UNL1        0.0000
    967 C          -5.5072   40.5528    6.0546 C.2     1  UNL1        0.0000
    968 C         -14.1753   27.5325    7.3994 C.2     1  UNL1        0.0000
    969 C          -4.3519   31.6441    0.0879 C.2     1  UNL1        0.0000
    970 C         -10.6169   44.0067    0.1310 C.2     1  UNL1        0.0000
    971 C          -0.6651   37.0736   -0.0382 C.2     1  UNL1        0.0000
    972 C         -14.2576   38.5765   -0.0492 C.2     1  UNL1        0.0000
    973 C          -8.5757   36.3145    5.4547 C.3     1  UNL1        0.0000
    974 C         -11.2963   31.9026    7.9972 C.3     1  UNL1        0.0000
    975 C          -6.1803   39.5140    5.2665 C.2     1  UNL1        0.0000
    976 C         -13.5297   28.6238    8.1807 C.2     1  UNL1        0.0000
    977 C          -4.2983   33.1331    0.0911 C.2     1  UNL1        0.0000
    978 C         -10.6353   42.5389    0.0849 C.2     1  UNL1        0.0000
    979 C          -1.9541   36.3645   -0.0134 C.2     1  UNL1        0.0000
    980 C         -12.9594   39.3120   -0.0126 C.2     1  UNL1        0.0000
    981 C         -10.6680   35.3630    6.5494 C.ar    1  UNL1        0.0000
    982 C          -9.2430   32.9329    6.9717 C.ar    1  UNL1        0.0000
    983 C          -6.2273   41.7261    6.3780 C.3     1  UNL1        0.0000
    984 C         -13.4394   26.3924    7.0963 C.3     1  UNL1        0.0000
    985 C          -4.4422   30.9774    1.3045 C.2     1  UNL1        0.0000
    986 C         -15.3813   37.2350   12.2712 C.3     1  UNL1        0.0000
    987 C          -0.0869   37.4513    1.1955 C.2     1  UNL1        0.0000
    988 C         -19.6537   30.7378   12.0823 C.3     1  UNL1        0.0000
    989 C          -4.1450   40.4193    6.4782 C.3     1  UNL1        0.0000
    990 C         -15.5207   27.6591    6.9921 C.3     1  UNL1        0.0000
    991 C          -8.6196   34.0163    6.3796 C.ar    1  UNL1        0.0000
    992 C         -11.2927   34.2383    7.1384 C.ar    1  UNL1        0.0000
    993 C          -4.8597   29.9434   12.1001 C.ar    1  UNL1        0.0000
    994 C         -14.9031   38.2222    1.1553 C.3     1  UNL1        0.0000
    995 C          -9.1857   23.4507   12.2310 C.ar    1  UNL1        0.0000
    996 C         -10.6567   44.7320    1.3662 C.2     1  UNL1        0.0000
    997 N         -11.3749   36.5283    6.4177 N.pl3   1  UNL1        0.0000
    998 N         -10.7903   44.1263    2.5831 N.2     1  UNL1        0.0000
    999 N          -5.3279   29.5747   10.8681 N.pl3   1  UNL1        0.0000
   1000 N          -3.3978   39.2980    6.2417 N.3     1  UNL1        0.0000
   1001 N          -4.1884   35.4799    7.6577 N.pl3   1  UNL1        0.0000
   1002 N          -6.2081   25.8942    9.4025 N.pl3   1  UNL1        0.0000
   1003 O          -4.6381   35.9127    5.0831 O.3     1  UNL1        0.0000
   1004 O         -15.2555   32.2188    8.3329 O.2     1  UNL1        0.0000
   1005 O          -8.1837   27.5475   10.0094 O.3     1  UNL1        0.0000
   1006 O         -11.6734   40.6052    3.4504 O.2     1  UNL1        0.0000
   1007 O         -10.3187   39.7568    5.0517 O.2     1  UNL1        0.0000
   1008 O          -9.4319   28.4722    8.3739 O.3     1  UNL1        0.0000
   1009 O          -3.3021   34.9604    3.5318 O.3     1  UNL1        0.0000
   1010 O         -16.4307   33.3127    9.9274 O.2     1  UNL1        0.0000
   1011 O          -5.9734   35.2831    2.7339 O.3     1  UNL1        0.0000
   1012 O         -13.7810   32.8729   10.6194 O.3     1  UNL1        0.0000
   1013 O          -4.5602   37.2995    2.6670 O.3     1  UNL1        0.0000
   1014 O         -15.2695   30.9245   10.8036 O.3     1  UNL1        0.0000
   1015 O         -10.8297   27.7414   10.6264 O.3     1  UNL1        0.0000
   1016 O          -9.0273   40.4728    2.7631 O.3     1  UNL1        0.0000
   1017 O          -9.5931   29.8526   10.8795 O.3     1  UNL1        0.0000
   1018 O         -10.1841   38.3051    2.6052 O.3     1  UNL1        0.0000
   1019 O          -7.3321   36.1264    5.1648 O.3     1  UNL1        0.0000
   1020 O         -12.5558   31.9825    8.1845 O.3     1  UNL1        0.0000
   1021 O          -5.5513   38.4544    4.9401 O.2     1  UNL1        0.0000
   1022 O         -14.2577   29.5964    8.5683 O.2     1  UNL1        0.0000
   1023 O          -9.1720   26.2561   12.3207 O.3     1  UNL1        0.0000
   1024 O         -10.7298   41.8717    1.1731 O.2     1  UNL1        0.0000
   1025 O          -7.3766   28.5793   12.2383 O.3     1  UNL1        0.0000
   1026 O         -12.4226   39.4772    1.1417 O.2     1  UNL1        0.0000
   1027 O          -7.4096   39.7100    4.9129 O.2     1  UNL1        0.0000
   1028 O         -12.2823   28.5293    8.4319 O.2     1  UNL1        0.0000
   1029 O          -9.1983   37.3928    5.1522 O.3     1  UNL1        0.0000
   1030 O         -10.5760   30.9005    8.3395 O.3     1  UNL1        0.0000
   1031 O          -2.4741   36.0787    1.1311 O.2     1  UNL1        0.0000
   1032 O         -17.3110   32.2403   12.2540 O.2     1  UNL1        0.0000
   1033 O          -4.2444   33.7337    1.2090 O.2     1  UNL1        0.0000
   1034 O         -15.3973   34.4761   12.3014 O.2     1  UNL1        0.0000
   1035 O          -7.4990   37.7794    2.8945 O.3     1  UNL1        0.0000
   1036 O         -12.3205   30.4142   10.5004 O.3     1  UNL1        0.0000
   1037 O          -5.0825   36.2091    0.0799 O.3     1  UNL1        0.0000
   1038 O          -9.8589   39.4269   -0.0049 O.3     1  UNL1        0.0000
   1039 H         -12.1120   33.4461   12.4303 H      14  UNL14       0.0000
   1040 H         -10.6548   33.0052   10.1083 H      14  UNL14       0.0000
   1041 C         -11.0845   33.1295   12.2927 C.2    14  UNL14       0.0000
   1042 H          -8.0986   34.0448    9.4335 H      14  UNL14       0.0000
   1043 C         -10.3655   32.9127   11.1460 C.2    14  UNL14       0.0000
   1044 H         -10.8927   33.9891   15.0022 H      14  UNL14       0.0000
   1045 N         -10.2333   32.8528   13.3518 N.pl3  14  UNL14       0.0000
   1046 C          -7.3620   33.4788   10.0181 C.3    14  UNL14       0.0000
   1047 H          -6.9522   34.1200   10.8074 H      14  UNL14       0.0000
   1048 C         -10.5879   32.9617   14.7748 C.3    14  UNL14       0.0000
   1049 N          -9.0899   32.5236   11.5153 N.pl3  14  UNL14       0.0000
   1050 H         -11.4145   32.2772   14.9973 H      14  UNL14       0.0000
   1051 H          -6.5471   33.1986    9.3350 H      14  UNL14       0.0000
   1052 C          -9.0352   32.4826   12.8583 C.3    14  UNL14       0.0000
   1053 C          -7.9731   32.2058   10.5947 C.3    14  UNL14       0.0000
   1054 H          -8.3832   31.5463    9.8208 H      14  UNL14       0.0000
   1055 H          -9.7206   32.6779   15.3787 H      14  UNL14       0.0000
   1056 H          -8.1736   32.2031   13.4511 H      14  UNL14       0.0000
   1057 H          -7.2496   31.6176   11.1718 H      14  UNL14       0.0000
   1058 TI        -20.1047   25.1644   24.9356 Ti      1  UNL1        0.0000
   1059 TI         -9.0268   28.2271   15.3249 Ti      1  UNL1        0.0000
   1060 TI        -15.5599   21.8496   23.0397 Ti      1  UNL1        0.0000
   1061 TI        -13.6190   31.5409   17.2165 Ti      1  UNL1        0.0000
   1062 TI        -15.2916   32.4293   15.2494 Ti      1  UNL1        0.0000
   1063 TI        -14.0886   20.6849   25.0089 Ti      1  UNL1        0.0000
   1064 TI        -18.6575   23.8641   23.0365 Ti      1  UNL1        0.0000
   1065 TI        -10.7426   29.2709   17.1736 Ti      1  UNL1        0.0000
   1066 H         -13.4570   24.5324   20.5596 H       1  UNL1        0.0000
   1067 H         -17.1425   18.8625   20.8453 H       1  UNL1        0.0000
   1068 H         -11.9931   34.3267   19.4465 H       1  UNL1        0.0000
   1069 H         -20.0923   29.1846   24.7674 H       1  UNL1        0.0000
   1070 H          -9.2007   24.0971   15.6345 H       1  UNL1        0.0000
   1071 H         -23.8577   23.5519   24.5867 H       1  UNL1        0.0000
   1072 H          -5.3543   29.7049   15.5137 H       1  UNL1        0.0000
   1073 H         -13.8573   16.5287   24.7045 H       1  UNL1        0.0000
   1074 H         -19.1952   31.0454   15.5156 H       1  UNL1        0.0000
   1075 H         -12.3177   26.4899   19.4740 H       1  UNL1        0.0000
   1076 H         -17.0709   26.8341   20.8600 H       1  UNL1        0.0000
   1077 H         -20.8089   21.0953   20.6563 H       1  UNL1        0.0000
   1078 H         -14.4259   31.0057   13.3287 H       1  UNL1        0.0000
   1079 H         -10.0468   29.6913   13.4994 H       1  UNL1        0.0000
   1080 H         -16.6853   23.5246   24.6055 H       1  UNL1        0.0000
   1081 H         -12.6871   29.7908   15.6206 H       1  UNL1        0.0000
   1082 H         -13.4511   20.5046   19.5612 H       1  UNL1        0.0000
   1083 H         -15.7901   32.6927   20.7171 H       1  UNL1        0.0000
   1084 H         -23.1334   26.9742   22.5316 H       1  UNL1        0.0000
   1085 H          -6.1905   26.2766   17.8057 H       1  UNL1        0.0000
   1086 H         -20.6702   25.3251   19.4183 H       1  UNL1        0.0000
   1087 H         -18.2199   34.6179   17.7364 H       1  UNL1        0.0000
   1088 H         -17.1161   29.0308   19.9463 H       1  UNL1        0.0000
   1089 H         -15.7028   29.7950   19.2494 H       1  UNL1        0.0000
   1090 H         -15.4564   35.6470   16.0371 H       1  UNL1        0.0000
   1091 H          -9.2368   22.0429   16.8341 H       1  UNL1        0.0000
   1092 H          -9.6590   22.5445   23.4607 H       1  UNL1        0.0000
   1093 H         -11.0102   21.7367   24.2283 H       1  UNL1        0.0000
   1094 H          -7.1347   31.8786   19.8082 H       1  UNL1        0.0000
   1095 H          -8.5064   31.1470   18.9994 H       1  UNL1        0.0000
   1096 H          -9.0073   28.2372   22.0534 H       1  UNL1        0.0000
   1097 H          -9.5029   28.5037   20.3901 H       1  UNL1        0.0000
   1098 H         -10.0926   17.9186   23.0073 H       1  UNL1        0.0000
   1099 H         -11.4285   18.9110   23.5683 H       1  UNL1        0.0000
   1100 C          -8.3548   27.7257   18.1703 C.3     1  UNL1        0.0000
   1101 C         -20.9376   25.5314   22.1166 C.2     1  UNL1        0.0000
   1102 C         -13.1933   20.2662   22.1705 C.3     1  UNL1        0.0000
   1103 C         -16.0787   32.9723   18.0844 C.2     1  UNL1        0.0000
   1104 C          -7.5222   27.1533   19.2386 C.ar    1  UNL1        0.0000
   1105 C         -21.8287   26.1072   21.0723 C.2     1  UNL1        0.0000
   1106 C         -12.3428   19.6101   21.1639 C.ar    1  UNL1        0.0000
   1107 C         -16.9245   33.5961   19.1408 C.2     1  UNL1        0.0000
   1108 C          -7.8227   27.3427   20.6272 C.ar    1  UNL1        0.0000
   1109 C         -21.5429   25.9050   19.7047 C.3     1  UNL1        0.0000
   1110 C         -11.2564   18.7463   21.5247 C.ar    1  UNL1        0.0000
   1111 C         -18.0034   34.4351   18.7852 C.3     1  UNL1        0.0000
   1112 C         -16.6278   33.3445   20.4761 C.3     1  UNL1        0.0000
   1113 C         -12.6182   19.8456   19.7968 C.ar    1  UNL1        0.0000
   1114 C          -6.3840   26.3998   18.8688 C.ar    1  UNL1        0.0000
   1115 C         -22.9409   26.8418   21.4687 C.3     1  UNL1        0.0000
   1116 C         -14.0345   27.7705   19.5612 C.ar    1  UNL1        0.0000
   1117 C         -15.3356   25.5856   20.7567 C.ar    1  UNL1        0.0000
   1118 C         -10.2435   33.0881   19.4667 C.2     1  UNL1        0.0000
   1119 C         -18.9115   20.0678   20.8116 C.2     1  UNL1        0.0000
   1120 C          -9.0882   24.1794   13.5000 C.ar    1  UNL1        0.0000
   1121 C         -15.3532   36.5420   13.5431 C.2     1  UNL1        0.0000
   1122 C          -5.4014   29.6089   13.3739 C.ar    1  UNL1        0.0000
   1123 C         -18.9939   31.1117   13.3629 C.2     1  UNL1        0.0000
   1124 C         -13.3120   28.8498   18.8668 C.3     1  UNL1        0.0000
   1125 C         -16.0325   24.4379   21.4093 C.3     1  UNL1        0.0000
   1126 C         -10.9165   32.0493   18.6786 C.2     1  UNL1        0.0000
   1127 C         -18.2659   21.1590   21.5928 C.2     1  UNL1        0.0000
   1128 C          -9.0346   25.6683   13.5032 C.3     1  UNL1        0.0000
   1129 C         -15.3716   35.0742   13.4970 C.2     1  UNL1        0.0000
   1130 C          -6.6904   28.8998   13.3987 C.3     1  UNL1        0.0000
   1131 C         -17.6956   31.8472   13.3995 C.2     1  UNL1        0.0000
   1132 C         -15.4043   27.8983   19.9615 C.ar    1  UNL1        0.0000
   1133 C         -13.9792   25.4682   20.3838 C.ar    1  UNL1        0.0000
   1134 C         -10.9635   34.2614   19.7901 C.3     1  UNL1        0.0000
   1135 C         -18.1756   18.9277   20.5084 C.3     1  UNL1        0.0000
   1136 C          -9.1785   23.5126   14.7166 C.ar    1  UNL1        0.0000
   1137 C         -20.1176   29.7703   25.6833 C.3     1  UNL1        0.0000
   1138 C          -4.8232   29.9865   14.6077 C.ar    1  UNL1        0.0000
   1139 C         -24.3900   23.2731   25.4944 C.3     1  UNL1        0.0000
   1140 C          -8.8812   32.9545   19.8903 C.3     1  UNL1        0.0000
   1141 C         -20.2570   20.1944   20.4042 C.3     1  UNL1        0.0000
   1142 C         -13.3558   26.5515   19.7917 C.ar    1  UNL1        0.0000
   1143 C         -16.0290   26.7735   20.5505 C.ar    1  UNL1        0.0000
   1144 C          -9.5960   22.4787   25.5122 C.ar    1  UNL1        0.0000
   1145 C         -19.6394   30.7575   14.5674 C.3     1  UNL1        0.0000
   1146 C         -13.9220   15.9860   25.6431 C.ar    1  UNL1        0.0000
   1147 C         -15.3930   37.2673   14.7783 C.2     1  UNL1        0.0000
   1148 N         -16.1112   29.0636   19.8299 N.pl3   1  UNL1        0.0000
   1149 N         -15.5265   36.6616   15.9952 N.2     1  UNL1        0.0000
   1150 N         -10.0641   22.1100   24.2802 N.pl3   1  UNL1        0.0000
   1151 N          -8.1341   31.8333   19.6538 N.3     1  UNL1        0.0000
   1152 N          -8.9247   28.0152   21.0699 N.pl3   1  UNL1        0.0000
   1153 N         -10.9444   18.4295   22.8146 N.pl3   1  UNL1        0.0000
   1154 O          -9.3743   28.4480   18.4952 O.3     1  UNL1        0.0000
   1155 O         -19.9918   24.7540   21.7450 O.2     1  UNL1        0.0000
   1156 O         -12.9200   20.0828   23.4215 O.3     1  UNL1        0.0000
   1157 O         -16.4097   33.1405   16.8625 O.2     1  UNL1        0.0000
   1158 O         -15.0550   32.2920   18.4638 O.2     1  UNL1        0.0000
   1159 O         -14.1682   21.0075   21.7860 O.3     1  UNL1        0.0000
   1160 O          -8.0384   27.4956   16.9439 O.3     1  UNL1        0.0000
   1161 O         -21.1669   25.8480   23.3396 O.2     1  UNL1        0.0000
   1162 O         -10.7097   27.8184   16.1460 O.3     1  UNL1        0.0000
   1163 O         -18.5173   25.4082   24.0316 O.3     1  UNL1        0.0000
   1164 O          -9.2964   29.8347   16.0791 O.3     1  UNL1        0.0000
   1165 O         -20.0058   23.4598   24.2157 O.3     1  UNL1        0.0000
   1166 O         -15.5660   20.2766   24.0385 O.3     1  UNL1        0.0000
   1167 O         -13.7636   33.0081   16.1752 O.3     1  UNL1        0.0000
   1168 O         -14.3294   22.3879   24.2916 O.3     1  UNL1        0.0000
   1169 O         -14.9204   30.8404   16.0173 O.3     1  UNL1        0.0000
   1170 O         -12.0684   28.6617   18.5769 O.3     1  UNL1        0.0000
   1171 O         -17.2920   24.5178   21.5966 O.3     1  UNL1        0.0000
   1172 O         -10.2875   30.9897   18.3522 O.2     1  UNL1        0.0000
   1173 O         -18.9939   22.1317   21.9804 O.2     1  UNL1        0.0000
   1174 O         -13.9082   18.7914   25.7328 O.3     1  UNL1        0.0000
   1175 O         -15.4660   34.4070   14.5852 O.2     1  UNL1        0.0000
   1176 O         -12.1129   21.1146   25.6504 O.3     1  UNL1        0.0000
   1177 O         -17.1589   32.0125   14.5538 O.2     1  UNL1        0.0000
   1178 O         -12.1459   32.2453   18.3250 O.2     1  UNL1        0.0000
   1179 O         -17.0186   21.0646   21.8440 O.2     1  UNL1        0.0000
   1180 O         -13.9345   29.9280   18.5643 O.3     1  UNL1        0.0000
   1181 O         -15.3123   23.4358   21.7516 O.3     1  UNL1        0.0000
   1182 O          -7.2103   28.6140   14.5432 O.3     1  UNL1        0.0000
   1183 O         -22.0473   24.7756   25.6661 O.2     1  UNL1        0.0000
   1184 O          -8.9807   26.2690   14.6211 O.3     1  UNL1        0.0000
   1185 O         -20.1336   27.0114   25.7135 O.2     1  UNL1        0.0000
   1186 O         -12.2352   30.3147   16.3066 O.3     1  UNL1        0.0000
   1187 O         -17.0567   22.9495   23.9125 O.3     1  UNL1        0.0000
   1188 O          -9.8188   28.7444   13.4920 O.3     1  UNL1        0.0000
   1189 O         -14.5952   31.9622   13.4072 O.3     1  UNL1        0.0000
   1190 H         -16.8483   25.9814   25.8424 H      15  UNL15       0.0000
   1191 H         -15.3910   25.5404   23.5204 H      15  UNL15       0.0000
   1192 C         -15.8207   25.6648   25.7048 C.2    15  UNL15       0.0000
   1193 H         -12.8348   26.5800   22.8456 H      15  UNL15       0.0000
   1194 C         -15.1018   25.4479   24.5581 C.2    15  UNL15       0.0000
   1195 H         -15.6289   26.5244   28.4143 H      15  UNL15       0.0000
   1196 N         -14.9695   25.3881   26.7639 N.pl3  15  UNL15       0.0000
   1197 C         -12.0982   26.0140   23.4302 C.3    15  UNL15       0.0000
   1198 H         -11.6884   26.6553   24.2195 H      15  UNL15       0.0000
   1199 C         -15.3242   25.4970   28.1869 C.3    15  UNL15       0.0000
   1200 N         -13.8261   25.0588   24.9274 N.pl3  15  UNL15       0.0000
   1201 H         -16.1508   24.8125   28.4094 H      15  UNL15       0.0000
   1202 H         -11.2834   25.7339   22.7471 H      15  UNL15       0.0000
   1203 C         -13.7715   25.0178   26.2704 C.3    15  UNL15       0.0000
   1204 C         -12.7093   24.7410   24.0069 C.3    15  UNL15       0.0000
   1205 H         -13.1195   24.0816   23.2329 H      15  UNL15       0.0000
   1206 H         -14.4568   25.2132   28.7908 H      15  UNL15       0.0000
   1207 H         -12.9099   24.7384   26.8632 H      15  UNL15       0.0000
   1208 H         -11.9858   24.1529   24.5839 H      15  UNL15       0.0000
   1209 TI        -24.8410   17.6997   38.3477 Ti      1  UNL1        0.0000
   1210 TI        -13.7630   20.7624   28.7370 Ti      1  UNL1        0.0000
   1211 TI        -20.2961   14.3849   36.4518 Ti      1  UNL1        0.0000
   1212 TI        -18.3552   24.0762   30.6286 Ti      1  UNL1        0.0000
   1213 TI        -20.0279   24.9646   28.6615 Ti      1  UNL1        0.0000
   1214 TI        -18.8249   13.2202   38.4211 Ti      1  UNL1        0.0000
   1215 TI        -23.3938   16.3993   36.4486 Ti      1  UNL1        0.0000
   1216 TI        -15.4789   21.8061   30.5857 Ti      1  UNL1        0.0000
   1217 H         -18.1932   17.0677   33.9718 H       1  UNL1        0.0000
   1218 H         -21.8788   11.3978   34.2574 H       1  UNL1        0.0000
   1219 H         -16.7293   26.8620   32.8586 H       1  UNL1        0.0000
   1220 H         -24.8285   21.7199   38.1795 H       8  UNL8        0.0000
   1221 H         -13.9369   16.6323   29.0466 H       1  UNL1        0.0000
   1222 H         -28.5939   16.0872   37.9988 H       9  UNL9        0.0000
   1223 H         -10.0905   22.2402   28.9258 H       1  UNL1        0.0000
   1224 H         -18.5936    9.0640   38.1166 H       5  UNL5        0.0000
   1225 H         -23.9314   23.5807   28.9277 H       1  UNL1        0.0000
   1226 H         -17.0539   19.0252   32.8862 H       1  UNL1        0.0000
   1227 H         -21.8071   19.3694   34.2721 H       1  UNL1        0.0000
   1228 H         -25.5452   13.6305   34.0684 H       1  UNL1        0.0000
   1229 H         -19.1622   23.5410   26.7408 H       1  UNL1        0.0000
   1230 H         -14.7831   22.2266   26.9115 H       1  UNL1        0.0000
   1231 H         -21.4216   16.0599   38.0176 H       1  UNL1        0.0000
   1232 H         -17.4234   22.3261   29.0328 H       1  UNL1        0.0000
   1233 H         -18.1873   13.0398   32.9733 H       1  UNL1        0.0000
   1234 H         -20.5264   25.2280   34.1292 H       1  UNL1        0.0000
   1235 H         -27.8697   19.5095   35.9437 H       1  UNL1        0.0000
   1236 H         -10.9267   18.8118   31.2178 H       1  UNL1        0.0000
   1237 H         -25.4065   17.8604   32.8304 H       1  UNL1        0.0000
   1238 H         -22.9562   27.1531   31.1485 H       1  UNL1        0.0000
   1239 H         -21.8524   21.5661   33.3584 H       1  UNL1        0.0000
   1240 H         -20.4390   22.3303   32.6615 H       1  UNL1        0.0000
   1241 H         -20.1926   28.1823   29.4492 H       1  UNL1        0.0000
   1242 H         -13.9730   14.5782   30.2462 H       1  UNL1        0.0000
   1243 H         -14.3953   15.0798   36.8729 H      10  UNL10       0.0000
   1244 H         -15.7465   14.2720   37.6404 H      10  UNL10       0.0000
   1245 H         -11.8710   24.4139   33.2204 H       1  UNL1        0.0000
   1246 H         -13.2426   23.6823   32.4115 H       1  UNL1        0.0000
   1247 H         -13.7436   20.7725   35.4656 H       1  UNL1        0.0000
   1248 H         -14.2392   21.0390   33.8022 H       1  UNL1        0.0000
   1249 H         -14.8289   10.4538   36.4194 H       1  UNL1        0.0000
   1250 H         -16.1647   11.4462   36.9805 H       1  UNL1        0.0000
   1251 C         -13.0910   20.2610   31.5824 C.3     1  UNL1        0.0000
   1252 C         -25.6739   18.0666   35.5287 C.2     1  UNL1        0.0000
   1253 C         -17.9295   12.8014   35.5826 C.3     1  UNL1        0.0000
   1254 C         -20.8149   25.5076   31.4965 C.2     1  UNL1        0.0000
   1255 C         -12.2584   19.6885   32.6507 C.ar    1  UNL1        0.0000
   1256 C         -26.5650   18.6425   34.4844 C.2     1  UNL1        0.0000
   1257 C         -17.0791   12.1454   34.5760 C.ar    1  UNL1        0.0000
   1258 C         -21.6608   26.1314   32.5529 C.2     1  UNL1        0.0000
   1259 C         -12.5589   19.8779   34.0393 C.ar    1  UNL1        0.0000
   1260 C         -26.2792   18.4403   33.1168 C.3     1  UNL1        0.0000
   1261 C         -15.9927   11.2815   34.9368 C.ar    1  UNL1        0.0000
   1262 C         -22.7397   26.9704   32.1974 C.3     1  UNL1        0.0000
   1263 C         -21.3641   25.8798   33.8882 C.3     1  UNL1        0.0000
   1264 C         -17.3544   12.3809   33.2089 C.ar    1  UNL1        0.0000
   1265 C         -11.1202   18.9351   32.2810 C.ar    1  UNL1        0.0000
   1266 C         -27.6772   19.3771   34.8808 C.3     1  UNL1        0.0000
   1267 C         -18.7708   20.3058   32.9733 C.ar    1  UNL1        0.0000
   1268 C         -20.0718   18.1208   34.1688 C.ar    1  UNL1        0.0000
   1269 C         -14.9798   25.6234   32.8788 C.2     1  UNL1        0.0000
   1270 C         -23.6478   12.6031   34.2237 C.2     1  UNL1        0.0000
   1271 C         -13.8244   16.7146   26.9121 C.ar    1  UNL1        0.0000
   1272 C         -20.0894   29.0773   26.9552 C.2     1  UNL1        0.0000
   1273 C         -10.1377   22.1441   26.7860 C.ar    1  UNL1        0.0000
   1274 C         -23.7301   23.6470   26.7750 C.2     1  UNL1        0.0000
   1275 C         -18.0482   21.3850   32.2790 C.3     1  UNL1        0.0000
   1276 C         -20.7688   16.9732   34.8214 C.3     1  UNL1        0.0000
   1277 C         -15.6528   24.5846   32.0907 C.2     1  UNL1        0.0000
   1278 C         -23.0022   13.6943   35.0049 C.2     1  UNL1        0.0000
   1279 C         -13.7708   18.2036   26.9153 C.3     1  UNL1        0.0000
   1280 C         -20.1079   27.6095   26.9091 C.2     1  UNL1        0.0000
   1281 C         -11.4267   21.4351   26.8108 C.3     1  UNL1        0.0000
   1282 C         -22.4319   24.3825   26.8116 C.2     1  UNL1        0.0000
   1283 C         -20.1405   20.4335   33.3736 C.ar    1  UNL1        0.0000
   1284 C         -18.7155   18.0035   33.7959 C.ar    1  UNL1        0.0000
   1285 C         -15.6998   26.7967   33.2022 C.3     1  UNL1        0.0000
   1286 C         -22.9119   11.4630   33.9205 C.3     1  UNL1        0.0000
   1287 C         -13.9148   16.0479   28.1287 C.ar    1  UNL1        0.0000
   1288 C         -24.8538   22.3056   39.0954 C.3    16  UNL16       0.0000
   1289 C          -9.5594   22.5218   28.0198 C.ar    1  UNL1        0.0000
   1290 C         -29.1262   15.8084   38.9065 C.3    17  UNL17       0.0000
   1291 C         -13.6175   25.4898   33.3025 C.3     1  UNL1        0.0000
   1292 C         -24.9932   12.7297   33.8163 C.3     1  UNL1        0.0000
   1293 C         -18.0921   19.0868   33.2038 C.ar    1  UNL1        0.0000
   1294 C         -20.7652   19.3088   33.9626 C.ar    1  UNL1        0.0000
   1295 C         -14.3323   15.0140   38.9243 C.2    10  UNL10       0.0000
   1296 C         -24.3756   23.2928   27.9795 C.3     1  UNL1        0.0000
   1297 C         -18.6582    8.5213   39.0553 C.2     5  UNL5        0.0000
   1298 C         -20.1292   29.8025   28.1904 C.2     1  UNL1        0.0000
   1299 N         -20.8474   21.5989   33.2420 N.pl3   1  UNL1        0.0000
   1300 N         -20.2628   29.1969   29.4073 N.2     1  UNL1        0.0000
   1301 N         -14.8004   14.6453   37.6923 N.pl3  10  UNL10       0.0000
   1302 N         -12.8703   24.3686   33.0660 N.3     1  UNL1        0.0000
   1303 N         -13.6609   20.5504   34.4820 N.pl3   1  UNL1        0.0000
   1304 N         -15.6806   10.9648   36.2267 N.pl3   1  UNL1        0.0000
   1305 O         -14.1106   20.9833   31.9073 O.3     1  UNL1        0.0000
   1306 O         -24.7280   17.2893   35.1571 O.2     1  UNL1        0.0000
   1307 O         -17.6563   12.6181   36.8337 O.3     1  UNL1        0.0000
   1308 O         -21.1459   25.6758   30.2746 O.2     1  UNL1        0.0000
   1309 O         -19.7913   24.8273   31.8759 O.2     1  UNL1        0.0000
   1310 O         -18.9044   13.5427   35.1982 O.3     1  UNL1        0.0000
   1311 O         -12.7747   20.0309   30.3560 O.3     1  UNL1        0.0000
   1312 O         -25.9032   18.3832   36.7517 O.2     1  UNL1        0.0000
   1313 O         -15.4460   20.3537   29.5581 O.3     1  UNL1        0.0000
   1314 O         -23.2535   17.9435   37.4437 O.3     1  UNL1        0.0000
   1315 O         -14.0327   22.3700   29.4912 O.3     1  UNL1        0.0000
   1316 O         -24.7421   15.9951   37.6278 O.3     1  UNL1        0.0000
   1317 O         -20.3022   12.8119   37.4506 O.3     1  UNL1        0.0000
   1318 O         -18.4998   25.5434   29.5873 O.3     1  UNL1        0.0000
   1319 O         -19.0656   14.9231   37.7037 O.3     1  UNL1        0.0000
   1320 O         -19.6566   23.3756   29.4295 O.3     1  UNL1        0.0000
   1321 O         -16.8047   21.1969   31.9890 O.3     1  UNL1        0.0000
   1322 O         -22.0283   17.0530   35.0088 O.3     1  UNL1        0.0000
   1323 O         -15.0238   23.5250   31.7643 O.2     1  UNL1        0.0000
   1324 O         -23.7302   14.6669   35.3926 O.2     1  UNL1        0.0000
   1325 O         -18.6445   11.3267   39.1449 O.3     1  UNL1        0.0000
   1326 O         -20.2023   26.9422   27.9973 O.2     1  UNL1        0.0000
   1327 O         -16.8491   13.6499   39.0625 O.3     1  UNL1        0.0000
   1328 O         -21.8951   24.5477   27.9659 O.2     1  UNL1        0.0000
   1329 O         -16.8821   24.7806   31.7371 O.2     1  UNL1        0.0000
   1330 O         -21.7548   13.5999   35.2561 O.2     1  UNL1        0.0000
   1331 O         -18.6708   22.4633   31.9764 O.3     1  UNL1        0.0000
   1332 O         -20.0485   15.9710   35.1637 O.3     1  UNL1        0.0000
   1333 O         -11.9466   21.1493   27.9553 O.3     1  UNL1        0.0000
   1334 O         -26.7835   17.3108   39.0782 O.3     1  UNL1        0.0000
   1335 O         -13.7170   18.8043   28.0332 O.3     1  UNL1        0.0000
   1336 O         -24.8698   19.5467   39.1256 O.3     1  UNL1        0.0000
   1337 O         -16.9715   22.8500   29.7187 O.3     1  UNL1        0.0000
   1338 O         -21.7930   15.4847   37.3246 O.3     1  UNL1        0.0000
   1339 O         -14.5550   21.2797   26.9041 O.3     1  UNL1        0.0000
   1340 O         -19.3314   24.4975   26.8194 O.3     1  UNL1        0.0000
   1341 H         -21.5845   18.5167   39.2545 H      18  UNL18       0.0000
   1342 H         -20.1273   18.0757   36.9325 H      18  UNL18       0.0000
   1343 C         -20.5570   18.2001   39.1170 C.2    18  UNL18       0.0000
   1344 H         -17.5711   19.1153   36.2577 H      18  UNL18       0.0000
   1345 C         -19.8381   17.9832   37.9702 C.2    18  UNL18       0.0000
   1346 H         -20.3652   19.0597   41.8264 H      18  UNL18       0.0000
   1347 N         -19.7058   17.9234   40.1760 N.pl3  18  UNL18       0.0000
   1348 C         -16.8345   18.5493   36.8423 C.3    18  UNL18       0.0000
   1349 H         -16.4247   19.1906   37.6316 H      18  UNL18       0.0000
   1350 C         -20.0604   18.0322   41.5990 C.3    18  UNL18       0.0000
   1351 N         -18.5624   17.5941   38.3395 N.pl3  18  UNL18       0.0000
   1352 H         -20.8871   17.3478   41.8215 H      18  UNL18       0.0000
   1353 H         -16.0196   18.2692   36.1592 H      18  UNL18       0.0000
   1354 C         -18.5077   17.5531   39.6825 C.3    18  UNL18       0.0000
   1355 C         -17.4456   17.2763   37.4190 C.3    18  UNL18       0.0000
   1356 H         -17.8557   16.6169   36.6450 H      18  UNL18       0.0000
   1357 H         -19.1931   17.7485   42.2029 H      18  UNL18       0.0000
   1358 H         -17.6462   17.2736   40.2753 H      18  UNL18       0.0000
   1359 H         -16.7221   16.6882   37.9960 H      18  UNL18       0.0000
   1360 TI         13.0344    2.3490   11.5235 Ti      1  UNL1        0.0000
   1361 TI         24.1123    5.4118    1.9128 Ti      1  UNL1        0.0000
   1362 TI         17.5792   -0.9658    9.6276 Ti      1  UNL1        0.0000
   1363 TI         19.5201    8.7255    3.8044 Ti      1  UNL1        0.0000
   1364 TI         17.8475    9.6140    1.8373 Ti      1  UNL1        0.0000
   1365 TI         19.0505   -2.1305   11.5968 Ti      1  UNL1        0.0000
   1366 TI         14.4815    1.0487    9.6244 Ti      1  UNL1        0.0000
   1367 TI         22.3965    6.4555    3.7615 Ti      1  UNL1        0.0000
   1368 H          19.6821    1.7170    7.1475 H       1  UNL1        0.0000
   1369 H          15.9965   -3.9529    7.4332 H       1  UNL1        0.0000
   1370 H          21.1460   11.5113    6.0344 H       1  UNL1        0.0000
   1371 H          13.0468    6.3693   11.3553 H       1  UNL1        0.0000
   1372 H          23.9384    1.2817    2.2224 H       1  UNL1        0.0000
   1373 H           9.2814    0.7366   11.1746 H       1  UNL1        0.0000
   1374 H          27.7848    6.8896    2.1016 H       1  UNL1        0.0000
   1375 H          19.2818   -6.2867   11.2923 H       1  UNL1        0.0000
   1376 H          13.9439    8.2301    2.1035 H       1  UNL1        0.0000
   1377 H          20.8214    3.6745    6.0619 H       1  UNL1        0.0000
   1378 H          16.0682    4.0187    7.4479 H       1  UNL1        0.0000
   1379 H          12.3302   -1.7201    7.2442 H       1  UNL1        0.0000
   1380 H          18.7132    8.1903   -0.0835 H       1  UNL1        0.0000
   1381 H          23.0923    6.8759    0.0873 H       1  UNL1        0.0000
   1382 H          16.4538    0.7092   11.1934 H       1  UNL1        0.0000
   1383 H          20.4520    6.9754    2.2085 H       1  UNL1        0.0000
   1384 H          19.6880   -2.3108    6.1491 H       1  UNL1        0.0000
   1385 H          17.3490    9.8774    7.3050 H       1  UNL1        0.0000
   1386 H          10.0057    4.1588    9.1195 H       1  UNL1        0.0000
   1387 H          26.9486    3.4612    4.3936 H       1  UNL1        0.0000
   1388 H          12.4689    2.5097    6.0062 H       1  UNL1        0.0000
   1389 H          14.9192   11.8025    4.3243 H       1  UNL1        0.0000
   1390 H          16.0230    6.2155    6.5342 H       1  UNL1        0.0000
   1391 H          17.4363    6.9796    5.8373 H       1  UNL1        0.0000
   1392 H          17.6827   12.8316    2.6250 H       1  UNL1        0.0000
   1393 H          23.9023   -0.7724    3.4220 H      45  UNL45       0.0000
   1394 H          23.4801   -0.2708   10.0486 H       1  UNL1        0.0000
   1395 H          22.1289   -1.0787   10.8162 H       1  UNL1        0.0000
   1396 H          26.0044    9.0633    6.3961 H       1  UNL1        0.0000
   1397 H          24.6327    8.3317    5.5873 H       1  UNL1        0.0000
   1398 H          24.1318    5.4218    8.6413 H       1  UNL1        0.0000
   1399 H          23.6362    5.6884    6.9780 H       1  UNL1        0.0000
   1400 H          23.0465   -4.8968    9.5952 H       1  UNL1        0.0000
   1401 H          21.7106   -3.9044   10.1562 H       1  UNL1        0.0000
   1402 C          24.7843    4.9103    4.7582 C.3     1  UNL1        0.0000
   1403 C          12.2015    2.7160    8.7045 C.3     1  UNL1        0.0000
   1404 C          19.9458   -2.5492    8.7584 C.2     1  UNL1        0.0000
   1405 C          17.0604   10.1569    4.6723 C.3     1  UNL1        0.0000
   1406 C          25.6169    4.3379    5.8265 C.ar    1  UNL1        0.0000
   1407 C          11.3104    3.2918    7.6602 C.ar    1  UNL1        0.0000
   1408 C          20.7963   -3.2053    7.7518 C.2     1  UNL1        0.0000
   1409 C          16.2146   10.7807    5.7287 C.ar    1  UNL1        0.0000
   1410 C          25.3164    4.5273    7.2151 C.ar    1  UNL1        0.0000
   1411 C          11.5961    3.0896    6.2926 C.ar    1  UNL1        0.0000
   1412 C          21.8827   -4.0691    8.1126 C.3     1  UNL1        0.0000
   1413 C          15.1357   11.6198    5.3731 C.ar    1  UNL1        0.0000
   1414 C          16.5113   10.5291    7.0640 C.ar    1  UNL1        0.0000
   1415 C          20.5209   -2.9698    6.3847 C.3     1  UNL1        0.0000
   1416 C          26.7551    3.5845    5.4567 C.ar    1  UNL1        0.0000
   1417 C          10.1982    4.0264    8.0566 C.ar    1  UNL1        0.0000
   1418 C          19.1046    4.9551    6.1491 C.ar    1  UNL1        0.0000
   1419 C          17.8035    2.7702    7.3445 C.ar    1  UNL1        0.0000
   1420 C          22.8956   10.2727    6.0546 C.ar    1  UNL1        0.0000
   1421 C          14.2276   -2.7476    7.3994 C.2     1  UNL1        0.0000
   1422 C          24.0509    1.3640    0.0879 C.2     1  UNL1        0.0000
   1423 C          17.7859   13.7266    0.1310 C.2     1  UNL1        0.0000
   1424 C          27.7377    6.7935   -0.0382 C.2     1  UNL1        0.0000
   1425 C          14.1452    8.2964   -0.0492 C.2     1  UNL1        0.0000
   1426 C          19.8271    6.0344    5.4547 C.3     1  UNL1        0.0000
   1427 C          17.1066    1.6225    7.9972 C.3     1  UNL1        0.0000
   1428 C          22.2225    9.2339    5.2665 C.3     1  UNL1        0.0000
   1429 C          14.8732   -1.6563    8.1807 C.2     1  UNL1        0.0000
   1430 C          24.1045    2.8530    0.0911 C.2     1  UNL1        0.0000
   1431 C          17.7675   12.2588    0.0849 C.2     1  UNL1        0.0000
   1432 C          26.4487    6.0844   -0.0134 C.2     1  UNL1        0.0000
   1433 C          15.4434    9.0319   -0.0126 C.2     1  UNL1        0.0000
   1434 C          17.7348    5.0829    6.5494 C.ar    1  UNL1        0.0000
   1435 C          19.1599    2.6528    6.9717 C.ar    1  UNL1        0.0000
   1436 C          22.1755   11.4460    6.3780 C.ar    1  UNL1        0.0000
   1437 C          14.9635   -3.8877    7.0963 C.3     1  UNL1        0.0000
   1438 C          23.9606    0.6973    1.3045 C.3     1  UNL1        0.0000
   1439 C          13.0215    6.9550   12.2712 C.ar    1  UNL1        0.0000
   1440 C          28.3159    7.1712    1.1955 C.2     1  UNL1        0.0000
   1441 C           8.7491    0.4577   12.0823 C.ar    1  UNL1        0.0000
   1442 C          24.2578   10.1392    6.4782 C.ar    1  UNL1        0.0000
   1443 C          12.8821   -2.6210    6.9921 C.3     1  UNL1        0.0000
   1444 C          19.7833    3.7362    6.3796 C.ar    1  UNL1        0.0000
   1445 C          17.1101    3.9582    7.1384 C.ar    1  UNL1        0.0000
   1446 C          23.5431   -0.3367   12.1001 C.ar    1  UNL1        0.0000
   1447 C          13.4997    7.9421    1.1553 C.2     1  UNL1        0.0000
   1448 C          19.2171   -6.8294   12.2310 C.3     1  UNL1        0.0000
   1449 C          17.7461   14.4519    1.3662 C.2     1  UNL1        0.0000
   1450 N          17.0279    6.2482    6.4177 N.pl3   1  UNL1        0.0000
   1451 N          17.6126   13.8462    2.5831 N.pl3   1  UNL1        0.0000
   1452 N          23.0750   -0.7054   10.8681 N.pl3   1  UNL1        0.0000
   1453 N          25.0050    9.0179    6.2417 N.pl3   1  UNL1        0.0000
   1454 N          24.2144    5.1998    7.6577 N.pl3   1  UNL1        0.0000
   1455 N          22.1947   -4.3859    9.4025 N.3     1  UNL1        0.0000
   1456 O          23.7648    5.6326    5.0831 O.3     1  UNL1        0.0000
   1457 O          13.1473    1.9387    8.3329 O.3     1  UNL1        0.0000
   1458 O          20.2191   -2.7326   10.0094 O.2     1  UNL1        0.0000
   1459 O          16.7294   10.3251    3.4504 O.3     1  UNL1        0.0000
   1460 O          18.0841    9.4767    5.0517 O.3     1  UNL1        0.0000
   1461 O          18.9709   -1.8079    8.3739 O.2     1  UNL1        0.0000
   1462 O          25.1007    4.6803    3.5318 O.3     1  UNL1        0.0000
   1463 O          11.9721    3.0326    9.9274 O.3     1  UNL1        0.0000
   1464 O          22.4294    5.0030    2.7339 O.3     1  UNL1        0.0000
   1465 O          14.6218    2.5928   10.6194 O.3     1  UNL1        0.0000
   1466 O          23.8427    7.0194    2.6670 O.3     1  UNL1        0.0000
   1467 O          13.1333    0.6444   10.8036 O.3     1  UNL1        0.0000
   1468 O          17.5731   -2.5387   10.6264 O.3     1  UNL1        0.0000
   1469 O          19.3755   10.1927    2.7631 O.3     1  UNL1        0.0000
   1470 O          18.8097   -0.4275   10.8795 O.3     1  UNL1        0.0000
   1471 O          18.2187    8.0250    2.6052 O.3     1  UNL1        0.0000
   1472 O          21.0707    5.8463    5.1648 O.3     1  UNL1        0.0000
   1473 O          15.8470    1.7024    8.1845 O.3     1  UNL1        0.0000
   1474 O          22.8515    8.1743    4.9401 O.3     1  UNL1        0.0000
   1475 O          14.1452   -0.6837    8.5683 O.2     1  UNL1        0.0000
   1476 O          19.2308   -4.0240   12.3207 O.2     1  UNL1        0.0000
   1477 O          17.6731   11.5916    1.1731 O.2     1  UNL1        0.0000
   1478 O          21.0262   -1.7008   12.2383 O.3     1  UNL1        0.0000
   1479 O          15.9802    9.1971    1.1417 O.2     1  UNL1        0.0000
   1480 O          20.9932    9.4299    4.9129 O.3     1  UNL1        0.0000
   1481 O          16.1205   -1.7508    8.4319 O.2     1  UNL1        0.0000
   1482 O          19.2046    7.1127    5.1522 O.3     1  UNL1        0.0000
   1483 O          17.8268    0.6204    8.3395 O.3     1  UNL1        0.0000
   1484 O          25.9288    5.7986    1.1311 O.2     1  UNL1        0.0000
   1485 O          11.0918    1.9602   12.2540 O.3     1  UNL1        0.0000
   1486 O          24.1584    3.4536    1.2090 O.2     1  UNL1        0.0000
   1487 O          13.0055    4.1960   12.3014 O.3     1  UNL1        0.0000
   1488 O          20.9039    7.4993    2.8945 O.3     1  UNL1        0.0000
   1489 O          16.0824    0.1341   10.5004 O.3     1  UNL1        0.0000
   1490 O          23.3203    5.9290    0.0799 O.3     1  UNL1        0.0000
   1491 O          18.5439    9.1468   -0.0049 O.3     1  UNL1        0.0000
   1492 H          16.2908    3.1660   12.4303 H      20  UNL20       0.0000
   1493 H          17.7481    2.7251   10.1083 H      20  UNL20       0.0000
   1494 C          17.3184    2.8494   12.2927 C.2    20  UNL20       0.0000
   1495 H          20.3043    3.7647    9.4335 H      20  UNL20       0.0000
   1496 C          18.0373    2.6326   11.1460 C.2    20  UNL20       0.0000
   1497 H          17.5102    3.7090   15.0022 H      20  UNL20       0.0000
   1498 N          18.1695    2.5727   13.3518 N.pl3  20  UNL20       0.0000
   1499 C          21.0409    3.1987   10.0181 C.3    20  UNL20       0.0000
   1500 H          21.4507    3.8399   10.8074 H      20  UNL20       0.0000
   1501 C          17.8149    2.6816   14.7748 C.3    20  UNL20       0.0000
   1502 N          19.3130    2.2435   11.5153 N.pl3  20  UNL20       0.0000
   1503 H          16.9883    1.9971   14.9973 H      20  UNL20       0.0000
   1504 H          21.8557    2.9185    9.3350 H      20  UNL20       0.0000
   1505 C          19.3676    2.2025   12.8583 C.3    20  UNL20       0.0000
   1506 C          20.4298    1.9257   10.5947 C.3    20  UNL20       0.0000
   1507 H          20.0196    1.2662    9.8208 H      20  UNL20       0.0000
   1508 H          18.6823    2.3978   15.3787 H      20  UNL20       0.0000
   1509 H          20.2292    1.9230   13.4511 H      20  UNL20       0.0000
   1510 H          21.1533    1.3375   11.1718 H      20  UNL20       0.0000
   1511 TI          8.2981   -5.1157   24.9356 Ti      1  UNL1        0.0000
   1512 TI         19.3761   -2.0530   15.3249 Ti      1  UNL1        0.0000
   1513 TI         12.8430   -8.4305   23.0397 Ti      1  UNL1        0.0000
   1514 TI         14.7838    1.2608   17.2165 Ti      1  UNL1        0.0000
   1515 TI         13.1112    2.1492   15.2494 Ti      1  UNL1        0.0000
   1516 TI         14.3142   -9.5952   25.0089 Ti      1  UNL1        0.0000
   1517 TI          9.7453   -6.4160   23.0365 Ti      1  UNL1        0.0000
   1518 TI         17.6602   -1.0092   17.1736 Ti      1  UNL1        0.0000
   1519 H          14.9459   -5.7477   20.5596 H       1  UNL1        0.0000
   1520 H          11.2603  -11.4176   20.8453 H       1  UNL1        0.0000
   1521 H          16.4098    4.0466   19.4465 H       1  UNL1        0.0000
   1522 H           8.3105   -1.0954   24.7674 H       1  UNL1        0.0000
   1523 H          19.2022   -6.1830   15.6345 H       1  UNL1        0.0000
   1524 H           4.5451   -6.7282   24.5867 H       1  UNL1        0.0000
   1525 H          23.0486   -0.5752   15.5137 H       1  UNL1        0.0000
   1526 H          14.5455  -13.7514   24.7045 H       1  UNL1        0.0000
   1527 H           9.2077    0.7653   15.5156 H       1  UNL1        0.0000
   1528 H          16.0852   -3.7902   19.4740 H       1  UNL1        0.0000
   1529 H          11.3319   -3.4460   20.8600 H       1  UNL1        0.0000
   1530 H           7.5939   -9.1848   20.6563 H       1  UNL1        0.0000
   1531 H          13.9769    0.7256   13.3287 H       1  UNL1        0.0000
   1532 H          18.3560   -0.5888   13.4994 H       1  UNL1        0.0000
   1533 H          11.7175   -6.7555   24.6055 H       1  UNL1        0.0000
   1534 H          15.7157   -0.4893   15.6206 H       1  UNL1        0.0000
   1535 H          14.9518   -9.7755   19.5612 H       1  UNL1        0.0000
   1536 H          12.6127    2.4127   20.7171 H       1  UNL1        0.0000
   1537 H           5.2694   -3.3059   22.5316 H       1  UNL1        0.0000
   1538 H          22.2124   -4.0035   17.8057 H       1  UNL1        0.0000
   1539 H           7.7326   -4.9550   19.4183 H       1  UNL1        0.0000
   1540 H          10.1829    4.3378   17.7364 H       1  UNL1        0.0000
   1541 H          11.2867   -1.2492   19.9463 H       1  UNL1        0.0000
   1542 H          12.7001   -0.4851   19.2494 H       1  UNL1        0.0000
   1543 H          12.9465    5.3669   16.0371 H       1  UNL1        0.0000
   1544 H          19.1660   -8.2372   16.8341 H      45  UNL45       0.0000
   1545 H          18.7438   -7.7356   23.4607 H       1  UNL1        0.0000
   1546 H          17.3926   -8.5434   24.2283 H       1  UNL1        0.0000
   1547 H          21.2681    1.5985   19.8082 H       1  UNL1        0.0000
   1548 H          19.8965    0.8669   18.9994 H       1  UNL1        0.0000
   1549 H          19.3955   -2.0429   22.0534 H       1  UNL1        0.0000
   1550 H          18.8999   -1.7764   20.3901 H       1  UNL1        0.0000
   1551 H          18.3102  -12.3615   23.0073 H       1  UNL1        0.0000
   1552 H          16.9744  -11.3691   23.5683 H       1  UNL1        0.0000
   1553 C          20.0481   -2.5544   18.1703 C.3     1  UNL1        0.0000
   1554 C           7.4652   -4.7487   22.1166 C.3     1  UNL1        0.0000
   1555 C          15.2096  -10.0139   22.1705 C.2     1  UNL1        0.0000
   1556 C          12.3242    2.6922   18.0844 C.3     1  UNL1        0.0000
   1557 C          20.8807   -3.1268   19.2386 C.ar    1  UNL1        0.0000
   1558 C           6.5741   -4.1729   21.0723 C.ar    1  UNL1        0.0000
   1559 C          16.0600  -10.6700   21.1639 C.2     1  UNL1        0.0000
   1560 C          11.4783    3.3160   19.1408 C.ar    1  UNL1        0.0000
   1561 C          20.5802   -2.9374   20.6272 C.ar    1  UNL1        0.0000
   1562 C           6.8599   -4.3751   19.7047 C.ar    1  UNL1        0.0000
   1563 C          17.1464  -11.5338   21.5247 C.3     1  UNL1        0.0000
   1564 C          10.3994    4.1550   18.7852 C.ar    1  UNL1        0.0000
   1565 C          11.7750    3.0644   20.4761 C.ar    1  UNL1        0.0000
   1566 C          15.7847  -10.4345   19.7968 C.3     1  UNL1        0.0000
   1567 C          22.0188   -3.8803   18.8688 C.ar    1  UNL1        0.0000
   1568 C           5.4619   -3.4383   21.4687 C.ar    1  UNL1        0.0000
   1569 C          14.3683   -2.5096   19.5612 C.ar    1  UNL1        0.0000
   1570 C          13.0673   -4.6945   20.7567 C.ar    1  UNL1        0.0000
   1571 C          18.1593    2.8080   19.4667 C.ar    1  UNL1        0.0000
   1572 C           9.4913  -10.2123   20.8116 C.2     1  UNL1        0.0000
   1573 C          19.3146   -6.1007   13.5000 C.2     1  UNL1        0.0000
   1574 C          13.0497    6.2619   13.5431 C.ar    1  UNL1        0.0000
   1575 C          23.0014   -0.6712   13.3739 C.ar    1  UNL1        0.0000
   1576 C           9.4090    0.8316   13.3629 C.ar    1  UNL1        0.0000
   1577 C          15.0908   -1.4303   18.8668 C.3     1  UNL1        0.0000
   1578 C          12.3703   -5.8422   21.4093 C.3     1  UNL1        0.0000
   1579 C          17.4863    1.7692   18.6786 C.3     1  UNL1        0.0000
   1580 C          10.1369   -9.1211   21.5928 C.2     1  UNL1        0.0000
   1581 C          19.3683   -4.6118   13.5032 C.2     1  UNL1        0.0000
   1582 C          13.0312    4.7941   13.4970 C.3     1  UNL1        0.0000
   1583 C          21.7124   -1.3803   13.3987 C.3     1  UNL1        0.0000
   1584 C          10.7072    1.5671   13.3995 C.3     1  UNL1        0.0000
   1585 C          12.9986   -2.3818   19.9615 C.ar    1  UNL1        0.0000
   1586 C          14.4236   -4.8119   20.3838 C.ar    1  UNL1        0.0000
   1587 C          17.4393    3.9813   19.7901 C.ar    1  UNL1        0.0000
   1588 C          10.2272  -11.3524   20.5084 C.3     1  UNL1        0.0000
   1589 C          19.2243   -6.7675   14.7166 C.3     1  UNL1        0.0000
   1590 C           8.2853   -0.5098   25.6833 C.ar    1  UNL1        0.0000
   1591 C          23.5797   -0.2936   14.6077 C.ar    1  UNL1        0.0000
   1592 C           4.0128   -7.0070   25.4944 C.ar    1  UNL1        0.0000
   1593 C          19.5216    2.6745   19.8903 C.ar    1  UNL1        0.0000
   1594 C           8.1459  -10.0857   20.4042 C.3     1  UNL1        0.0000
   1595 C          15.0470   -3.7286   19.7917 C.ar    1  UNL1        0.0000
   1596 C          12.3738   -3.5066   20.5505 C.ar    1  UNL1        0.0000
   1597 C          18.8068   -7.8014   25.5122 C.ar    1  UNL1        0.0000
   1598 C           8.7635    0.4774   14.5674 C.ar    1  UNL1        0.0000
   1599 C          14.4809  -14.2941   25.6431 C.3     1  UNL1        0.0000
   1600 C          13.0099    6.9872   14.7783 C.ar    1  UNL1        0.0000
   1601 N          12.2917   -1.2165   19.8299 N.pl3   1  UNL1        0.0000
   1602 N          12.8763    6.3815   15.9952 N.pl3   1  UNL1        0.0000
   1603 N          18.3387   -8.1701   24.2802 N.pl3   1  UNL1        0.0000
   1604 N          20.2688    1.5532   19.6538 N.pl3   1  UNL1        0.0000
   1605 N          19.4782   -2.2649   21.0699 N.pl3   1  UNL1        0.0000
   1606 N          17.4585  -11.8506   22.8146 N.3     1  UNL1        0.0000
   1607 O          19.0285   -1.8321   18.4952 O.3     1  UNL1        0.0000
   1608 O           8.4111   -5.5260   21.7450 O.3     1  UNL1        0.0000
   1609 O          15.4828  -10.1973   23.4215 O.2     1  UNL1        0.0000
   1610 O          11.9932    2.8604   16.8625 O.3     1  UNL1        0.0000
   1611 O          13.3478    2.0119   18.4638 O.3     1  UNL1        0.0000
   1612 O          14.2347   -9.2726   21.7860 O.2     1  UNL1        0.0000
   1613 O          20.3644   -2.7845   16.9439 O.3     1  UNL1        0.0000
   1614 O           7.2359   -4.4321   23.3396 O.3     1  UNL1        0.0000
   1615 O          17.6931   -2.4617   16.1460 O.3     1  UNL1        0.0000
   1616 O           9.8855   -4.8719   24.0316 O.3     1  UNL1        0.0000
   1617 O          19.1064   -0.4454   16.0791 O.3     1  UNL1        0.0000
   1618 O           8.3970   -6.8203   24.2157 O.3     1  UNL1        0.0000
   1619 O          12.8369  -10.0035   24.0385 O.3     1  UNL1        0.0000
   1620 O          14.6393    2.7280   16.1752 O.3     1  UNL1        0.0000
   1621 O          14.0735   -7.8922   24.2916 O.3     1  UNL1        0.0000
   1622 O          13.4825    0.5603   16.0173 O.3     1  UNL1        0.0000
   1623 O          16.3344   -1.6184   18.5769 O.3     1  UNL1        0.0000
   1624 O          11.1108   -5.7623   21.5966 O.3     1  UNL1        0.0000
   1625 O          18.1153    0.7096   18.3522 O.3     1  UNL1        0.0000
   1626 O           9.4089   -8.1484   21.9804 O.2     1  UNL1        0.0000
   1627 O          14.4946  -11.4887   25.7328 O.2     1  UNL1        0.0000
   1628 O          12.9368    4.1269   14.5852 O.3     1  UNL1        0.0000
   1629 O          16.2900   -9.1655   25.6504 O.3     1  UNL1        0.0000
   1630 O          11.2440    1.7324   14.5538 O.3     1  UNL1        0.0000
   1631 O          16.2570    1.9652   18.3250 O.3     1  UNL1        0.0000
   1632 O          11.3843   -9.2155   21.8440 O.2     1  UNL1        0.0000
   1633 O          14.4683   -0.3521   18.5643 O.3     1  UNL1        0.0000
   1634 O          13.0906   -6.8443   21.7516 O.3     1  UNL1        0.0000
   1635 O          21.1925   -1.6661   14.5432 O.3     1  UNL1        0.0000
   1636 O           6.3555   -5.5045   25.6661 O.3     1  UNL1        0.0000
   1637 O          19.4221   -4.0111   14.6211 O.2     1  UNL1        0.0000
   1638 O           8.2692   -3.2687   25.7135 O.3     1  UNL1        0.0000
   1639 O          16.1676    0.0346   16.3066 O.3     1  UNL1        0.0000
   1640 O          11.3461   -7.3306   23.9125 O.3     1  UNL1        0.0000
   1641 O          18.5841   -1.5357   13.4920 O.3     1  UNL1        0.0000
   1642 O          13.8076    1.6821   13.4072 O.3     1  UNL1        0.0000
   1643 H          11.5546   -4.2987   25.8424 H      22  UNL22       0.0000
   1644 H          13.0118   -4.7397   23.5204 H      22  UNL22       0.0000
   1645 C          12.5821   -4.6153   25.7048 C.2    22  UNL22       0.0000
   1646 H          15.5680   -3.7001   22.8456 H      22  UNL22       0.0000
   1647 C          13.3010   -4.8322   24.5581 C.2    22  UNL22       0.0000
   1648 H          12.7739   -3.7557   28.4143 H      22  UNL22       0.0000
   1649 N          13.4333   -4.8920   26.7639 N.pl3  22  UNL22       0.0000
   1650 C          16.3046   -4.2660   23.4302 C.3    22  UNL22       0.0000
   1651 H          16.7144   -3.6248   24.2195 H      22  UNL22       0.0000
   1652 C          13.0787   -4.7831   28.1869 C.3    22  UNL22       0.0000
   1653 N          14.5767   -5.2213   24.9274 N.pl3  22  UNL22       0.0000
   1654 H          12.2520   -5.4676   28.4094 H      22  UNL22       0.0000
   1655 H          17.1195   -4.5462   22.7471 H      22  UNL22       0.0000
   1656 C          14.6313   -5.2623   26.2704 C.3    22  UNL22       0.0000
   1657 C          15.6935   -5.5390   24.0069 C.3    22  UNL22       0.0000
   1658 H          15.2834   -6.1985   23.2329 H      22  UNL22       0.0000
   1659 H          13.9460   -5.0669   28.7908 H      22  UNL22       0.0000
   1660 H          15.4929   -5.5417   26.8632 H      22  UNL22       0.0000
   1661 H          16.4170   -6.1272   24.5839 H      22  UNL22       0.0000
   1662 TI          3.5618  -12.5804   38.3477 Ti      1  UNL1        0.0000
   1663 TI         14.6398   -9.5177   28.7370 Ti      1  UNL1        0.0000
   1664 TI          8.1067  -15.8952   36.4518 Ti      1  UNL1        0.0000
   1665 TI         10.0476   -6.2039   30.6286 Ti      1  UNL1        0.0000
   1666 TI          8.3750   -5.3155   28.6615 Ti      1  UNL1        0.0000
   1667 TI          9.5779  -17.0599   38.4211 Ti      1  UNL1        0.0000
   1668 TI          5.0090  -13.8808   36.4486 Ti      1  UNL1        0.0000
   1669 TI         12.9240   -8.4740   30.5857 Ti      1  UNL1        0.0000
   1670 H          10.2096  -13.2124   33.9718 H       1  UNL1        0.0000
   1671 H           6.5240  -18.8823   34.2574 H       1  UNL1        0.0000
   1672 H          11.6735   -3.4181   32.8586 H       1  UNL1        0.0000
   1673 H           3.5743   -8.5602   38.1795 H      11  UNL11       0.0000
   1674 H          14.4659  -13.6478   29.0466 H       1  UNL1        0.0000
   1675 H          -0.1911  -14.1929   37.9988 H       3  UNL3        0.0000
   1676 H          18.3123   -8.0399   28.9258 H       1  UNL1        0.0000
   1677 H           9.8093  -21.2161   38.1166 H      13  UNL13       0.0000
   1678 H           4.4714   -6.6994   28.9277 H       1  UNL1        0.0000
   1679 H          11.3489  -11.2549   32.8862 H       1  UNL1        0.0000
   1680 H           6.5957  -10.9107   34.2721 H       1  UNL1        0.0000
   1681 H           2.8577  -16.6496   34.0684 H       1  UNL1        0.0000
   1682 H           9.2406   -6.7391   26.7408 H       1  UNL1        0.0000
   1683 H          13.6197   -8.0535   26.9115 H       1  UNL1        0.0000
   1684 H           6.9813  -14.2202   38.0176 H       1  UNL1        0.0000
   1685 H          10.9795   -7.9540   29.0328 H       1  UNL1        0.0000
   1686 H          10.2155  -17.2403   32.9733 H       1  UNL1        0.0000
   1687 H           7.8764   -5.0521   34.1292 H       1  UNL1        0.0000
   1688 H           0.5332  -10.7706   35.9437 H       1  UNL1        0.0000
   1689 H          17.4761  -11.4683   31.2178 H       1  UNL1        0.0000
   1690 H           2.9964  -12.4197   32.8304 H       1  UNL1        0.0000
   1691 H           5.4466   -3.1270   31.1485 H       1  UNL1        0.0000
   1692 H           6.5504   -8.7140   33.3584 H       1  UNL1        0.0000
   1693 H           7.9638   -7.9498   32.6615 H       1  UNL1        0.0000
   1694 H           8.2102   -2.0978   29.4492 H       1  UNL1        0.0000
   1695 H          14.4298  -15.7019   30.2462 H      45  UNL45       0.0000
   1696 H          14.0076  -15.2003   36.8729 H      12  UNL12       0.0000
   1697 H          12.6563  -16.0081   37.6404 H      12  UNL12       0.0000
   1698 H          16.5318   -5.8662   33.2204 H       1  UNL1        0.0000
   1699 H          15.1602   -6.5978   32.4115 H       1  UNL1        0.0000
   1700 H          14.6593   -9.5076   35.4656 H       1  UNL1        0.0000
   1701 H          14.1637   -9.2411   33.8022 H       1  UNL1        0.0000
   1702 H          13.5739  -19.8263   36.4194 H       1  UNL1        0.0000
   1703 H          12.2381  -18.8339   36.9805 H       1  UNL1        0.0000
   1704 C          15.3118  -10.0191   31.5824 C.3     1  UNL1        0.0000
   1705 C           2.7289  -12.2135   35.5287 C.3     1  UNL1        0.0000
   1706 C          10.4733  -17.4787   35.5826 C.2     1  UNL1        0.0000
   1707 C           7.5879   -4.7725   31.4965 C.3     1  UNL1        0.0000
   1708 C          16.1444  -10.5916   32.6507 C.ar    1  UNL1        0.0000
   1709 C           1.8379  -11.6376   34.4844 C.ar    1  UNL1        0.0000
   1710 C          11.3238  -18.1347   34.5760 C.2     1  UNL1        0.0000
   1711 C           6.7420   -4.1487   32.5529 C.ar    1  UNL1        0.0000
   1712 C          15.8439  -10.4022   34.0393 C.ar    1  UNL1        0.0000
   1713 C           2.1236  -11.8398   33.1168 C.ar    1  UNL1        0.0000
   1714 C          12.4102  -18.9986   34.9368 C.3     1  UNL1        0.0000
   1715 C           5.6631   -3.3097   32.1974 C.ar    1  UNL1        0.0000
   1716 C           7.0388   -4.4003   33.8882 C.ar    1  UNL1        0.0000
   1717 C          11.0484  -17.8992   33.2089 C.3     1  UNL1        0.0000
   1718 C          17.2826  -11.3450   32.2810 C.ar    1  UNL1        0.0000
   1719 C           0.7256  -10.9030   34.8808 C.ar    1  UNL1        0.0000
   1720 C           9.6321   -9.9743   32.9733 C.ar    1  UNL1        0.0000
   1721 C           8.3310  -12.1593   34.1688 C.ar    1  UNL1        0.0000
   1722 C          13.4231   -4.6567   32.8788 C.ar    1  UNL1        0.0000
   1723 C           4.7550  -17.6770   34.2237 C.2     1  UNL1        0.0000
   1724 C          14.5784  -13.5655   26.9121 C.2     1  UNL1        0.0000
   1725 C           8.3134   -1.2028   26.9552 C.ar    1  UNL1        0.0000
   1726 C          18.2652   -8.1360   26.7860 C.ar    1  UNL1        0.0000
   1727 C           4.6727   -6.6331   26.7750 C.ar    1  UNL1        0.0000
   1728 C          10.3546   -8.8951   32.2790 C.3     1  UNL1        0.0000
   1729 C           7.6341  -13.3069   34.8214 C.3     1  UNL1        0.0000
   1730 C          12.7500   -5.6955   32.0907 C.3     1  UNL1        0.0000
   1731 C           5.4006  -16.5858   35.0049 C.2     1  UNL1        0.0000
   1732 C          14.6320  -12.0765   26.9153 C.2     1  UNL1        0.0000
   1733 C           8.2950   -2.6706   26.9091 C.3     1  UNL1        0.0000
   1734 C          16.9762   -8.8450   26.8108 C.3     1  UNL1        0.0000
   1735 C           5.9709   -5.8976   26.8116 C.3     1  UNL1        0.0000
   1736 C           8.2623   -9.8466   33.3736 C.ar    1  UNL1        0.0000
   1737 C           9.6874  -12.2766   33.7959 C.ar    1  UNL1        0.0000
   1738 C          12.7030   -3.4834   33.2022 C.ar    1  UNL1        0.0000
   1739 C           5.4909  -18.8171   33.9205 C.3     1  UNL1        0.0000
   1740 C          14.4881  -14.2322   28.1287 C.3     1  UNL1        0.0000
   1741 C           3.5490   -7.9745   39.0954 C.2    11  UNL11       0.0000
   1742 C          18.8434   -7.7583   28.0198 C.ar    1  UNL1        0.0000
   1743 C          -0.7234  -14.4717   38.9065 C.2     3  UNL3        0.0000
   1744 C          14.7853   -4.7903   33.3025 C.ar    1  UNL1        0.0000
   1745 C           3.4096  -17.5504   33.8163 C.3     1  UNL1        0.0000
   1746 C          10.3107  -11.1933   33.2038 C.ar    1  UNL1        0.0000
   1747 C           7.6376  -10.9713   33.9626 C.ar    1  UNL1        0.0000
   1748 C          14.0706  -15.2661   38.9243 C.2    12  UNL12       0.0000
   1749 C           4.0272   -6.9873   27.9795 C.ar    1  UNL1        0.0000
   1750 C           9.7446  -21.7588   39.0553 C.3    24  UNL24       0.0000
   1751 C           8.2736   -0.4776   28.1904 C.ar    1  UNL1        0.0000
   1752 N           7.5554   -8.6812   33.2420 N.pl3   1  UNL1        0.0000
   1753 N           8.1401   -1.0832   29.4073 N.pl3   1  UNL1        0.0000
   1754 N          13.6025  -15.6348   37.6923 N.pl3  12  UNL12       0.0000
   1755 N          15.5325   -5.9115   33.0660 N.pl3   1  UNL1        0.0000
   1756 N          14.7419   -9.7297   34.4820 N.pl3   1  UNL1        0.0000
   1757 N          12.7222  -19.3153   36.2267 N.3     1  UNL1        0.0000
   1758 O          14.2922   -9.2968   31.9073 O.3     1  UNL1        0.0000
   1759 O           3.6748  -12.9908   35.1571 O.3     1  UNL1        0.0000
   1760 O          10.7466  -17.6620   36.8337 O.2     1  UNL1        0.0000
   1761 O           7.2569   -4.6043   30.2746 O.3     1  UNL1        0.0000
   1762 O           8.6116   -5.4528   31.8759 O.3     1  UNL1        0.0000
   1763 O           9.4984  -16.7374   35.1982 O.2     1  UNL1        0.0000
   1764 O          15.6282  -10.2492   30.3560 O.3     1  UNL1        0.0000
   1765 O           2.4996  -11.8968   36.7517 O.3     1  UNL1        0.0000
   1766 O          12.9569   -9.9264   29.5581 O.3     1  UNL1        0.0000
   1767 O           5.1493  -12.3366   37.4437 O.3     1  UNL1        0.0000
   1768 O          14.3701   -7.9101   29.4912 O.3     1  UNL1        0.0000
   1769 O           3.6608  -14.2850   37.6278 O.3     1  UNL1        0.0000
   1770 O           8.1006  -17.4682   37.4506 O.3     1  UNL1        0.0000
   1771 O           9.9030   -4.7367   29.5873 O.3     1  UNL1        0.0000
   1772 O           9.3372  -15.3570   37.7037 O.3     1  UNL1        0.0000
   1773 O           8.7462   -6.9045   29.4295 O.3     1  UNL1        0.0000
   1774 O          11.5982   -9.0832   31.9890 O.3     1  UNL1        0.0000
   1775 O           6.3745  -13.2271   35.0088 O.3     1  UNL1        0.0000
   1776 O          13.3790   -6.7551   31.7643 O.3     1  UNL1        0.0000
   1777 O           4.6727  -15.6132   35.3926 O.2     1  UNL1        0.0000
   1778 O           9.7583  -18.9534   39.1449 O.3     1  UNL1        0.0000
   1779 O           8.2005   -3.3379   27.9973 O.3     1  UNL1        0.0000
   1780 O          11.5537  -16.6302   39.0625 O.3     1  UNL1        0.0000
   1781 O           6.5077   -5.7324   27.9659 O.3     1  UNL1        0.0000
   1782 O          11.5207   -5.4995   31.7371 O.3     1  UNL1        0.0000
   1783 O           6.6480  -16.6802   35.2561 O.2     1  UNL1        0.0000
   1784 O           9.7320   -7.8168   31.9764 O.3     1  UNL1        0.0000
   1785 O           8.3543  -14.3090   35.1637 O.3     1  UNL1        0.0000
   1786 O          16.4562   -9.1308   27.9553 O.3     1  UNL1        0.0000
   1787 O           1.6193  -12.9693   39.0782 O.3     1  UNL1        0.0000
   1788 O          14.6859  -11.4758   28.0332 O.2     1  UNL1        0.0000
   1789 O           3.5330  -10.7334   39.1256 O.3     1  UNL1        0.0000
   1790 O          11.4313   -7.4301   29.7187 O.3     1  UNL1        0.0000
   1791 O           6.6098  -14.7954   37.3246 O.3     1  UNL1        0.0000
   1792 O          13.8478   -9.0004   26.9041 O.3     1  UNL1        0.0000
   1793 O           9.0714   -5.7826   26.8194 O.3     1  UNL1        0.0000
   1794 H           6.8183  -11.7634   39.2545 H      25  UNL25       0.0000
   1795 H           8.2755  -12.2044   36.9325 H      25  UNL25       0.0000
   1796 C           7.8459  -12.0800   39.1170 C.2    25  UNL25       0.0000
   1797 H          10.8317  -11.1648   36.2577 H      25  UNL25       0.0000
   1798 C           8.5648  -12.2969   37.9702 C.2    25  UNL25       0.0000
   1799 H           8.0377  -11.2204   41.8264 H      25  UNL25       0.0000
   1800 N           8.6970  -12.3567   40.1760 N.pl3  25  UNL25       0.0000
   1801 C          11.5683  -11.7308   36.8423 C.3    25  UNL25       0.0000
   1802 H          11.9781  -11.0895   37.6316 H      25  UNL25       0.0000
   1803 C           8.3424  -12.2479   41.5990 C.3    25  UNL25       0.0000
   1804 N           9.8404  -12.6860   38.3395 N.pl3  25  UNL25       0.0000
   1805 H           7.5158  -12.9323   41.8215 H      25  UNL25       0.0000
   1806 H          12.3832  -12.0109   36.1592 H      25  UNL25       0.0000
   1807 C           9.8951  -12.7270   39.6825 C.3    25  UNL25       0.0000
   1808 C          10.9572  -13.0038   37.4190 C.3    25  UNL25       0.0000
   1809 H          10.5471  -13.6632   36.6450 H      25  UNL25       0.0000
   1810 H           9.2097  -12.5316   42.2029 H      25  UNL25       0.0000
   1811 H          10.7567  -13.0064   40.2753 H      25  UNL25       0.0000
   1812 H          11.6808  -13.5919   37.9960 H      25  UNL25       0.0000
   1813 TI          6.8351   17.4891   11.5235 Ti      1  UNL1        0.0000
   1814 TI         17.9130   20.5518    1.9128 Ti      1  UNL1        0.0000
   1815 TI         11.3799   14.1743    9.6276 Ti      1  UNL1        0.0000
   1816 TI         13.3208   23.8656    3.8044 Ti      1  UNL1        0.0000
   1817 TI         11.6482   24.7540    1.8373 Ti      1  UNL1        0.0000
   1818 TI         12.8512   13.0096   11.5968 Ti      1  UNL1        0.0000
   1819 TI          8.2823   16.1887    9.6244 Ti      1  UNL1        0.0000
   1820 TI         16.1972   21.5955    3.7615 Ti      1  UNL1        0.0000
   1821 H          13.4828   16.8571    7.1475 H       1  UNL1        0.0000
   1822 H           9.7973   11.1872    7.4332 H       1  UNL1        0.0000
   1823 H          14.9467   26.6514    6.0344 H       1  UNL1        0.0000
   1824 H           6.8475   21.5093   11.3553 H       1  UNL1        0.0000
   1825 H          17.7391   16.4217    2.2224 H       1  UNL1        0.0000
   1826 H           3.0821   15.8766   11.1746 H       1  UNL1        0.0000
   1827 H          21.5856   22.0296    2.1016 H       1  UNL1        0.0000
   1828 H          13.0825    8.8534   11.2923 H       1  UNL1        0.0000
   1829 H           7.7446   23.3701    2.1035 H       1  UNL1        0.0000
   1830 H          14.6221   18.8146    6.0619 H       1  UNL1        0.0000
   1831 H           9.8689   19.1588    7.4479 H       1  UNL1        0.0000
   1832 H           6.1309   13.4199    7.2442 H       1  UNL1        0.0000
   1833 H          12.5139   23.3304   -0.0835 H       1  UNL1        0.0000
   1834 H          16.8930   22.0160    0.0873 H       1  UNL1        0.0000
   1835 H          10.2545   15.8493   11.1934 H       1  UNL1        0.0000
   1836 H          14.2527   22.1155    2.2085 H       1  UNL1        0.0000
   1837 H          13.4887   12.8292    6.1491 H       1  UNL1        0.0000
   1838 H          11.1497   25.0174    7.3050 H       1  UNL1        0.0000
   1839 H           3.8064   19.2989    9.1195 H       1  UNL1        0.0000
   1840 H          20.7493   18.6012    4.3936 H       1  UNL1        0.0000
   1841 H           6.2696   17.6498    6.0062 H       1  UNL1        0.0000
   1842 H           8.7199   26.9425    4.3243 H       1  UNL1        0.0000
   1843 H           9.8237   21.3555    6.5342 H       1  UNL1        0.0000
   1844 H          11.2370   22.1197    5.8373 H       1  UNL1        0.0000
   1845 H          11.4834   27.9717    2.6250 H       1  UNL1        0.0000
   1846 H          17.7030   14.3676    3.4220 H       1  UNL1        0.0000
   1847 H          17.2808   14.8692   10.0486 H       1  UNL1        0.0000
   1848 H          15.9296   14.0614   10.8162 H       1  UNL1        0.0000
   1849 H          19.8051   24.2033    6.3961 H       1  UNL1        0.0000
   1850 H          18.4334   23.4717    5.5873 H       1  UNL1        0.0000
   1851 H          17.9325   20.5619    8.6413 H       1  UNL1        0.0000
   1852 H          17.4369   20.8284    6.9780 H       1  UNL1        0.0000
   1853 H          16.8472   10.2432    9.5952 H       1  UNL1        0.0000
   1854 H          15.5114   11.2356   10.1562 H       1  UNL1        0.0000
   1855 C          18.5851   20.0504    4.7582 C.3     1  UNL1        0.0000
   1856 C           6.0022   17.8560    8.7045 C.3     1  UNL1        0.0000
   1857 C          13.7465   12.5908    8.7584 C.3     1  UNL1        0.0000
   1858 C          10.8611   25.2970    4.6723 C.3     1  UNL1        0.0000
   1859 C          19.4176   19.4779    5.8265 C.ar    1  UNL1        0.0000
   1860 C           5.1111   18.4319    7.6602 C.ar    1  UNL1        0.0000
   1861 C          14.5970   11.9348    7.7518 C.ar    1  UNL1        0.0000
   1862 C          10.0153   25.9208    5.7287 C.ar    1  UNL1        0.0000
   1863 C          19.1171   19.6673    7.2151 C.ar    1  UNL1        0.0000
   1864 C           5.3969   18.2297    6.2926 C.ar    1  UNL1        0.0000
   1865 C          15.6834   11.0709    8.1126 C.ar    1  UNL1        0.0000
   1866 C           8.9364   26.7598    5.3731 C.ar    1  UNL1        0.0000
   1867 C          10.3120   25.6692    7.0640 C.ar    1  UNL1        0.0000
   1868 C          14.3216   12.1703    6.3847 C.ar    1  UNL1        0.0000
   1869 C          20.5558   18.7245    5.4567 C.ar    1  UNL1        0.0000
   1870 C           3.9989   19.1665    8.0566 C.ar    1  UNL1        0.0000
   1871 C          12.9053   20.0952    6.1491 C.ar    1  UNL1        0.0000
   1872 C          11.6042   17.9102    7.3445 C.ar    1  UNL1        0.0000
   1873 C          16.6963   25.4128    6.0546 C.ar    1  UNL1        0.0000
   1874 C           8.0283   12.3925    7.3994 C.ar    1  UNL1        0.0000
   1875 C          17.8516   16.5040    0.0879 C.2     1  UNL1        0.0000
   1876 C          11.5866   28.8667    0.1310 C.2     1  UNL1        0.0000
   1877 C          21.5384   21.9335   -0.0382 C.2     1  UNL1        0.0000
   1878 C           7.9459   23.4364   -0.0492 C.2     1  UNL1        0.0000
   1879 C          13.6278   21.1744    5.4547 C.3     1  UNL1        0.0000
   1880 C          10.9073   16.7626    7.9972 C.3     1  UNL1        0.0000
   1881 C          16.0233   24.3740    5.2665 C.3     1  UNL1        0.0000
   1882 C           8.6739   13.4837    8.1807 C.3     1  UNL1        0.0000
   1883 C          17.9052   17.9930    0.0911 C.2     1  UNL1        0.0000
   1884 C          11.5682   27.3989    0.0849 C.2     1  UNL1        0.0000
   1885 C          20.2494   21.2245   -0.0134 C.2     1  UNL1        0.0000
   1886 C           9.2442   24.1719   -0.0126 C.2     1  UNL1        0.0000
   1887 C          11.5355   20.2229    6.5494 C.ar    1  UNL1        0.0000
   1888 C          12.9606   17.7929    6.9717 C.ar    1  UNL1        0.0000
   1889 C          15.9763   26.5861    6.3780 C.ar    1  UNL1        0.0000
   1890 C           8.7642   11.2524    7.0963 C.ar    1  UNL1        0.0000
   1891 C          17.7613   15.8373    1.3045 C.2     1  UNL1        0.0000
   1892 C           6.8222   22.0950   12.2712 C.ar    1  UNL1        0.0000
   1893 C          22.1166   22.3112    1.1955 C.2     1  UNL1        0.0000
   1894 C           2.5498   15.5978   12.0823 C.ar    1  UNL1        0.0000
   1895 C          18.0586   25.2792    6.4782 C.ar    1  UNL1        0.0000
   1896 C           6.6828   12.5191    6.9921 C.ar    1  UNL1        0.0000
   1897 C          13.5840   18.8762    6.3796 C.ar    1  UNL1        0.0000
   1898 C          10.9108   19.0982    7.1384 C.ar    1  UNL1        0.0000
   1899 C          17.3438   14.8034   12.1001 C.ar    1  UNL1        0.0000
   1900 C           7.3004   23.0822    1.1553 C.2     1  UNL1        0.0000
   1901 C          13.0178    8.3107   12.2310 C.ar    1  UNL1        0.0000
   1902 C          11.5468   29.5919    1.3662 C.2     1  UNL1        0.0000
   1903 N          10.8286   21.3883    6.4177 N.pl3   1  UNL1        0.0000
   1904 N          11.4133   28.9863    2.5831 N.pl3   1  UNL1        0.0000
   1905 N          16.8757   14.4347   10.8681 N.pl3   1  UNL1        0.0000
   1906 N          18.8057   24.1580    6.2417 N.pl3   1  UNL1        0.0000
   1907 N          18.0152   20.3398    7.6577 N.pl3   1  UNL1        0.0000
   1908 N          15.9954   10.7542    9.4025 N.pl3   1  UNL1        0.0000
   1909 O          17.5655   20.7727    5.0831 O.3     1  UNL1        0.0000
   1910 O           6.9480   17.0787    8.3329 O.3     1  UNL1        0.0000
   1911 O          14.0198   12.4075   10.0094 O.3     1  UNL1        0.0000
   1912 O          10.5302   25.4652    3.4504 O.3     1  UNL1        0.0000
   1913 O          11.8848   24.6167    5.0517 O.3     1  UNL1        0.0000
   1914 O          12.7716   13.3321    8.3739 O.3     1  UNL1        0.0000
   1915 O          18.9014   19.8203    3.5318 O.3     1  UNL1        0.0000
   1916 O           5.7729   18.1726    9.9274 O.3     1  UNL1        0.0000
   1917 O          16.2301   20.1431    2.7339 O.3     1  UNL1        0.0000
   1918 O           8.4225   17.7329   10.6194 O.3     1  UNL1        0.0000
   1919 O          17.6434   22.1594    2.6670 O.3     1  UNL1        0.0000
   1920 O           6.9340   15.7845   10.8036 O.3     1  UNL1        0.0000
   1921 O          11.3739   12.6013   10.6264 O.3     1  UNL1        0.0000
   1922 O          13.1762   25.3328    2.7631 O.3     1  UNL1        0.0000
   1923 O          12.6104   14.7125   10.8795 O.3     1  UNL1        0.0000
   1924 O          12.0194   23.1650    2.6052 O.3     1  UNL1        0.0000
   1925 O          14.8714   20.9863    5.1648 O.3     1  UNL1        0.0000
   1926 O           9.6478   16.8424    8.1845 O.3     1  UNL1        0.0000
   1927 O          16.6523   23.3144    4.9401 O.3     1  UNL1        0.0000
   1928 O           7.9459   14.4563    8.5683 O.3     1  UNL1        0.0000
   1929 O          13.0316   11.1161   12.3207 O.3     1  UNL1        0.0000
   1930 O          11.4738   26.7316    1.1731 O.2     1  UNL1        0.0000
   1931 O          14.8269   13.4393   12.2383 O.3     1  UNL1        0.0000
   1932 O           9.7810   24.3371    1.1417 O.2     1  UNL1        0.0000
   1933 O          14.7940   24.5700    4.9129 O.3     1  UNL1        0.0000
   1934 O           9.9212   13.3893    8.4319 O.3     1  UNL1        0.0000
   1935 O          13.0053   22.2527    5.1522 O.3     1  UNL1        0.0000
   1936 O          11.6275   15.7604    8.3395 O.3     1  UNL1        0.0000
   1937 O          19.7295   20.9387    1.1311 O.2     1  UNL1        0.0000
   1938 O           4.8925   17.1002   12.2540 O.3     1  UNL1        0.0000
   1939 O          17.9591   18.5937    1.2090 O.2     1  UNL1        0.0000
   1940 O           6.8062   19.3361   12.3014 O.3     1  UNL1        0.0000
   1941 O          14.7046   22.6394    2.8945 O.3     1  UNL1        0.0000
   1942 O           9.8831   15.2741   10.5004 O.3     1  UNL1        0.0000
   1943 O          17.1210   21.0691    0.0799 O.3     1  UNL1        0.0000
   1944 O          12.3446   24.2869   -0.0049 O.3     1  UNL1        0.0000
   1945 H          10.0915   18.3061   12.4303 H      26  UNL26       0.0000
   1946 H          11.5488   17.8651   10.1083 H      26  UNL26       0.0000
   1947 C          11.1191   17.9895   12.2927 C.2    26  UNL26       0.0000
   1948 H          14.1050   18.9047    9.4335 H      26  UNL26       0.0000
   1949 C          11.8380   17.7726   11.1460 C.2    26  UNL26       0.0000
   1950 H          11.3109   18.8491   15.0022 H      26  UNL26       0.0000
   1951 N          11.9703   17.7128   13.3518 N.pl3  26  UNL26       0.0000
   1952 C          14.8416   18.3387   10.0181 C.3    26  UNL26       0.0000
   1953 H          15.2514   18.9800   10.8074 H      26  UNL26       0.0000
   1954 C          11.6156   17.8216   14.7748 C.3    26  UNL26       0.0000
   1955 N          13.1137   17.3835   11.5153 N.pl3  26  UNL26       0.0000
   1956 H          10.7890   17.1372   14.9973 H      26  UNL26       0.0000
   1957 H          15.6565   18.0586    9.3350 H      26  UNL26       0.0000
   1958 C          13.1683   17.3425   12.8583 C.3    26  UNL26       0.0000
   1959 C          14.2305   17.0657   10.5947 C.3    26  UNL26       0.0000
   1960 H          13.8204   16.4063    9.8208 H      26  UNL26       0.0000
   1961 H          12.4830   17.5379   15.3787 H      26  UNL26       0.0000
   1962 H          14.0299   17.0630   13.4511 H      26  UNL26       0.0000
   1963 H          14.9540   16.4776   11.1718 H      26  UNL26       0.0000
   1964 TI          2.0988   10.0243   24.9356 Ti      1  UNL1        0.0000
   1965 TI         13.1768   13.0871   15.3249 Ti      1  UNL1        0.0000
   1966 TI          6.6437    6.7096   23.0397 Ti      1  UNL1        0.0000
   1967 TI          8.5846   16.4008   17.2165 Ti      1  UNL1        0.0000
   1968 TI          6.9119   17.2893   15.2494 Ti      1  UNL1        0.0000
   1969 TI          8.1149    5.5449   25.0089 Ti      1  UNL1        0.0000
   1970 TI          3.5460    8.7240   23.0365 Ti      1  UNL1        0.0000
   1971 TI         11.4609   14.1308   17.1736 Ti      1  UNL1        0.0000
   1972 H           8.7466    9.3923   20.5596 H       1  UNL1        0.0000
   1973 H           5.0610    3.7225   20.8453 H       1  UNL1        0.0000
   1974 H          10.2105   19.1867   19.4465 H       1  UNL1        0.0000
   1975 H           2.1113   14.0446   24.7674 H       1  UNL1        0.0000
   1976 H          13.0029    8.9570   15.6345 H       1  UNL1        0.0000
   1977 H          -1.6541    8.4119   24.5867 H       1  UNL1        0.0000
   1978 H          16.8493   14.5649   15.5137 H       1  UNL1        0.0000
   1979 H           8.3462    1.3886   24.7045 H       1  UNL1        0.0000
   1980 H           3.0084   15.9054   15.5156 H       1  UNL1        0.0000
   1981 H           9.8859   11.3499   19.4740 H       1  UNL1        0.0000
   1982 H           5.1327   11.6940   20.8600 H       1  UNL1        0.0000
   1983 H           1.3947    5.9552   20.6563 H       1  UNL1        0.0000
   1984 H           7.7776   15.8656   13.3287 H       1  UNL1        0.0000
   1985 H          12.1567   14.5513   13.4994 H       1  UNL1        0.0000
   1986 H           5.5183    8.3845   24.6055 H       1  UNL1        0.0000
   1987 H           9.5164   14.6507   15.6206 H       1  UNL1        0.0000
   1988 H           8.7525    5.3645   19.5612 H       1  UNL1        0.0000
   1989 H           6.4134   17.5527   20.7171 H       1  UNL1        0.0000
   1990 H          -0.9299   11.8342   22.5316 H       1  UNL1        0.0000
   1991 H          16.0131   11.1365   17.8057 H       1  UNL1        0.0000
   1992 H           1.5333   10.1850   19.4183 H       1  UNL1        0.0000
   1993 H           3.9836   19.4778   17.7364 H       1  UNL1        0.0000
   1994 H           5.0874   13.8908   19.9463 H       1  UNL1        0.0000
   1995 H           6.5008   14.6549   19.2494 H       1  UNL1        0.0000
   1996 H           6.7472   20.5069   16.0371 H       1  UNL1        0.0000
   1997 H          12.9668    6.9029   16.8341 H       1  UNL1        0.0000
   1998 H          12.5445    7.4045   23.4607 H       1  UNL1        0.0000
   1999 H          11.1933    6.5967   24.2283 H       1  UNL1        0.0000
   2000 H          15.0688   16.7386   19.8082 H       1  UNL1        0.0000
   2001 H          13.6972   16.0070   18.9994 H       1  UNL1        0.0000
   2002 H          13.1963   13.0971   22.0534 H       1  UNL1        0.0000
   2003 H          12.7006   13.3637   20.3901 H       1  UNL1        0.0000
   2004 H          12.1109    2.7785   23.0073 H       1  UNL1        0.0000
   2005 H          10.7751    3.7709   23.5683 H       1  UNL1        0.0000
   2006 C          13.8488   12.5857   18.1703 C.3     1  UNL1        0.0000
   2007 C           1.2659   10.3913   22.1166 C.3     1  UNL1        0.0000
   2008 C           9.0103    5.1261   22.1705 C.3     1  UNL1        0.0000
   2009 C           6.1249   17.8323   18.0844 C.3     1  UNL1        0.0000
   2010 C          14.6814   12.0132   19.2386 C.ar    1  UNL1        0.0000
   2011 C           0.3749   10.9671   21.0723 C.ar    1  UNL1        0.0000
   2012 C           9.8607    4.4701   21.1639 C.ar    1  UNL1        0.0000
   2013 C           5.2790   18.4560   19.1408 C.ar    1  UNL1        0.0000
   2014 C          14.3809   12.2026   20.6272 C.ar    1  UNL1        0.0000
   2015 C           0.6606   10.7649   19.7047 C.ar    1  UNL1        0.0000
   2016 C          10.9471    3.6062   21.5247 C.ar    1  UNL1        0.0000
   2017 C           4.2001   19.2951   18.7852 C.ar    1  UNL1        0.0000
   2018 C           5.5757   18.2045   20.4761 C.ar    1  UNL1        0.0000
   2019 C           9.5854    4.7055   19.7968 C.ar    1  UNL1        0.0000
   2020 C          15.8196   11.2598   18.8688 C.ar    1  UNL1        0.0000
   2021 C          -0.7374   11.7018   21.4687 C.ar    1  UNL1        0.0000
   2022 C           8.1691   12.6304   19.5612 C.ar    1  UNL1        0.0000
   2023 C           6.8680   10.4455   20.7567 C.ar    1  UNL1        0.0000
   2024 C          11.9600   17.9481   19.4667 C.ar    1  UNL1        0.0000
   2025 C           3.2920    4.9278   20.8116 C.ar    1  UNL1        0.0000
   2026 C          13.1154    9.0393   13.5000 C.ar    1  UNL1        0.0000
   2027 C           6.8504   21.4019   13.5431 C.ar    1  UNL1        0.0000
   2028 C          16.8021   14.4688   13.3739 C.ar    1  UNL1        0.0000
   2029 C           3.2097   15.9717   13.3629 C.ar    1  UNL1        0.0000
   2030 C           8.8916   13.7097   18.8668 C.3     1  UNL1        0.0000
   2031 C           6.1710    9.2978   21.4093 C.3     1  UNL1        0.0000
   2032 C          11.2870   16.9092   18.6786 C.3     1  UNL1        0.0000
   2033 C           3.9376    6.0190   21.5928 C.3     1  UNL1        0.0000
   2034 C          13.1690   10.5283   13.5032 C.3     1  UNL1        0.0000
   2035 C           6.8319   19.9341   13.4970 C.3     1  UNL1        0.0000
   2036 C          15.5132   13.7597   13.3987 C.3     1  UNL1        0.0000
   2037 C           4.5079   16.7072   13.3995 C.3     1  UNL1        0.0000
   2038 C           6.7993   12.7582   19.9615 C.ar    1  UNL1        0.0000
   2039 C           8.2243   10.3281   20.3838 C.ar    1  UNL1        0.0000
   2040 C          11.2400   19.1213   19.7901 C.ar    1  UNL1        0.0000
   2041 C           4.0279    3.7876   20.5084 C.ar    1  UNL1        0.0000
   2042 C          13.0250    8.3726   14.7166 C.ar    1  UNL1        0.0000
   2043 C           2.0860   14.6303   25.6833 C.ar    1  UNL1        0.0000
   2044 C          17.3804   14.8465   14.6077 C.ar    1  UNL1        0.0000
   2045 C          -2.1864    8.1330   25.4944 C.ar    1  UNL1        0.0000
   2046 C          13.3223   17.8145   19.8903 C.ar    1  UNL1        0.0000
   2047 C           1.9466    5.0544   20.4042 C.ar    1  UNL1        0.0000
   2048 C           8.8477   11.4115   19.7917 C.ar    1  UNL1        0.0000
   2049 C           6.1746   11.6335   20.5505 C.ar    1  UNL1        0.0000
   2050 C          12.6075    7.3387   25.5122 C.ar    1  UNL1        0.0000
   2051 C           2.5642   15.6175   14.5674 C.ar    1  UNL1        0.0000
   2052 C           8.2816    0.8459   25.6431 C.ar    1  UNL1        0.0000
   2053 C           6.8106   22.1272   14.7783 C.ar    1  UNL1        0.0000
   2054 N           6.0924   13.9236   19.8299 N.pl3   1  UNL1        0.0000
   2055 N           6.6770   21.5216   15.9952 N.pl3   1  UNL1        0.0000
   2056 N          12.1394    6.9699   24.2802 N.pl3   1  UNL1        0.0000
   2057 N          14.0695   16.6933   19.6538 N.pl3   1  UNL1        0.0000
   2058 N          13.2789   12.8751   21.0699 N.pl3   1  UNL1        0.0000
   2059 N          11.2592    3.2895   22.8146 N.pl3   1  UNL1        0.0000
   2060 O          12.8292   13.3080   18.4952 O.3     1  UNL1        0.0000
   2061 O           2.2118    9.6140   21.7450 O.3     1  UNL1        0.0000
   2062 O           9.2835    4.9428   23.4215 O.3     1  UNL1        0.0000
   2063 O           5.7939   18.0004   16.8625 O.3     1  UNL1        0.0000
   2064 O           7.1485   17.1520   18.4638 O.3     1  UNL1        0.0000
   2065 O           8.0354    5.8674   21.7860 O.3     1  UNL1        0.0000
   2066 O          14.1652   12.3556   16.9439 O.3     1  UNL1        0.0000
   2067 O           1.0366   10.7079   23.3396 O.3     1  UNL1        0.0000
   2068 O          11.4938   12.6784   16.1460 O.3     1  UNL1        0.0000
   2069 O           3.6863   10.2681   24.0316 O.3     1  UNL1        0.0000
   2070 O          12.9071   14.6947   16.0791 O.3     1  UNL1        0.0000
   2071 O           2.1977    8.3198   24.2157 O.3     1  UNL1        0.0000
   2072 O           6.6376    5.1366   24.0385 O.3     1  UNL1        0.0000
   2073 O           8.4400   17.8681   16.1752 O.3     1  UNL1        0.0000
   2074 O           7.8742    7.2478   24.2916 O.3     1  UNL1        0.0000
   2075 O           7.2832   15.7003   16.0173 O.3     1  UNL1        0.0000
   2076 O          10.1351   13.5216   18.5769 O.3     1  UNL1        0.0000
   2077 O           4.9115    9.3777   21.5966 O.3     1  UNL1        0.0000
   2078 O          11.9160   15.8497   18.3522 O.3     1  UNL1        0.0000
   2079 O           3.2096    6.9916   21.9804 O.3     1  UNL1        0.0000
   2080 O           8.2953    3.6513   25.7328 O.3     1  UNL1        0.0000
   2081 O           6.7375   19.2669   14.5852 O.3     1  UNL1        0.0000
   2082 O          10.0907    5.9745   25.6504 O.3     1  UNL1        0.0000
   2083 O           5.0447   16.8724   14.5538 O.3     1  UNL1        0.0000
   2084 O          10.0577   17.1053   18.3250 O.3     1  UNL1        0.0000
   2085 O           5.1850    5.9245   21.8440 O.3     1  UNL1        0.0000
   2086 O           8.2690   14.7880   18.5643 O.3     1  UNL1        0.0000
   2087 O           6.8913    8.2957   21.7516 O.3     1  UNL1        0.0000
   2088 O          14.9932   13.4740   14.5432 O.3     1  UNL1        0.0000
   2089 O           0.1563    9.6355   25.6661 O.3     1  UNL1        0.0000
   2090 O          13.2228   11.1290   14.6211 O.3     1  UNL1        0.0000
   2091 O           2.0700   11.8714   25.7135 O.3     1  UNL1        0.0000
   2092 O           9.9683   15.1747   16.3066 O.3     1  UNL1        0.0000
   2093 O           5.1468    7.8094   23.9125 O.3     1  UNL1        0.0000
   2094 O          12.3848   13.6043   13.4920 O.3     1  UNL1        0.0000
   2095 O           7.6084   16.8221   13.4072 O.3     1  UNL1        0.0000
   2096 H           5.3553   10.8413   25.8424 H      27  UNL27       0.0000
   2097 H           6.8125   10.4004   23.5204 H      27  UNL27       0.0000
   2098 C           6.3828   10.5247   25.7048 C.2    27  UNL27       0.0000
   2099 H           9.3687   11.4400   22.8456 H      27  UNL27       0.0000
   2100 C           7.1018   10.3079   24.5581 C.2    27  UNL27       0.0000
   2101 H           6.5746   11.3844   28.4143 H      27  UNL27       0.0000
   2102 N           7.2340   10.2480   26.7639 N.pl3  27  UNL27       0.0000
   2103 C          10.1053   10.8740   23.4302 C.3    27  UNL27       0.0000
   2104 H          10.5151   11.5153   24.2195 H      27  UNL27       0.0000
   2105 C           6.8794   10.3569   28.1869 C.3    27  UNL27       0.0000
   2106 N           8.3774    9.9188   24.9274 N.pl3  27  UNL27       0.0000
   2107 H           6.0527    9.6725   28.4094 H      27  UNL27       0.0000
   2108 H          10.9202   10.5938   22.7471 H      27  UNL27       0.0000
   2109 C           8.4321    9.8778   26.2704 C.3    27  UNL27       0.0000
   2110 C           9.4942    9.6010   24.0069 C.3    27  UNL27       0.0000
   2111 H           9.0841    8.9416   23.2329 H      27  UNL27       0.0000
   2112 H           7.7467   10.0731   28.7908 H      27  UNL27       0.0000
   2113 H           9.2936    9.5983   26.8632 H      27  UNL27       0.0000
   2114 H          10.2177    9.0128   24.5839 H      27  UNL27       0.0000
   2115 TI         -2.6375    2.5596   38.3477 Ti      1  UNL1        0.0000
   2116 TI          8.4405    5.6224   28.7370 Ti      1  UNL1        0.0000
   2117 TI          1.9074   -0.7552   36.4518 Ti      1  UNL1        0.0000
   2118 TI          3.8483    8.9361   30.6286 Ti      1  UNL1        0.0000
   2119 TI          2.1757    9.8246   28.6615 Ti      1  UNL1        0.0000
   2120 TI          3.3787   -1.9199   38.4211 Ti      1  UNL1        0.0000
   2121 TI         -1.1903    1.2593   36.4486 Ti      1  UNL1        0.0000
   2122 TI          6.7247    6.6661   30.5857 Ti      1  UNL1        0.0000
   2123 H           4.0103    1.9276   33.9718 H       1  UNL1        0.0000
   2124 H           0.3247   -3.7423   34.2574 H       1  UNL1        0.0000
   2125 H           5.4742   11.7219   32.8586 H       1  UNL1        0.0000
   2126 H          -2.6250    6.5799   38.1795 H      14  UNL14       0.0000
   2127 H           8.2666    1.4923   29.0466 H       1  UNL1        0.0000
   2128 H          -6.3904    0.9472   37.9988 H       7  UNL7        0.0000
   2129 H          12.1130    7.1002   28.9258 H       1  UNL1        0.0000
   2130 H           3.6100   -6.0761   38.1166 H      11  UNL11       0.0000
   2131 H          -1.7279    8.4407   28.9277 H       1  UNL1        0.0000
   2132 H           5.1496    3.8851   32.8862 H       1  UNL1        0.0000
   2133 H           0.3964    4.2293   34.2721 H       1  UNL1        0.0000
   2134 H          -3.3416   -1.5095   34.0684 H       1  UNL1        0.0000
   2135 H           3.0414    8.4009   26.7408 H       1  UNL1        0.0000
   2136 H           7.4205    7.0865   26.9115 H       1  UNL1        0.0000
   2137 H           0.7820    0.9198   38.0176 H       1  UNL1        0.0000
   2138 H           4.7802    7.1860   29.0328 H       1  UNL1        0.0000
   2139 H           4.0162   -2.1002   32.9733 H       1  UNL1        0.0000
   2140 H           1.6771   10.0880   34.1292 H       1  UNL1        0.0000
   2141 H          -5.6661    4.3694   35.9437 H       1  UNL1        0.0000
   2142 H          11.2768    3.6718   31.2178 H       1  UNL1        0.0000
   2143 H          -3.2029    2.7203   32.8304 H       1  UNL1        0.0000
   2144 H          -0.7526   12.0131   31.1485 H       1  UNL1        0.0000
   2145 H           0.3512    6.4261   33.3584 H       1  UNL1        0.0000
   2146 H           1.7645    7.1902   32.6615 H       1  UNL1        0.0000
   2147 H           2.0109   13.0422   29.4492 H       1  UNL1        0.0000
   2148 H           8.2305   -0.5618   30.2462 H       1  UNL1        0.0000
   2149 H           7.8083   -0.0603   36.8729 H      15  UNL15       0.0000
   2150 H           6.4571   -0.8681   37.6404 H      15  UNL15       0.0000
   2151 H          10.3326    9.2739   33.2204 H       1  UNL1        0.0000
   2152 H           8.9609    8.5423   32.4115 H       1  UNL1        0.0000
   2153 H           8.4600    5.6324   35.4656 H       1  UNL1        0.0000
   2154 H           7.9644    5.8990   33.8022 H       1  UNL1        0.0000
   2155 H           7.3747   -4.6862   36.4194 H       1  UNL1        0.0000
   2156 H           6.0388   -3.6938   36.9805 H       1  UNL1        0.0000
   2157 C           9.1125    5.1209   31.5824 C.3     1  UNL1        0.0000
   2158 C          -3.4703    2.9266   35.5287 C.3     1  UNL1        0.0000
   2159 C           4.2740   -2.3386   35.5826 C.3     1  UNL1        0.0000
   2160 C           1.3886   10.3675   31.4965 C.3     1  UNL1        0.0000
   2161 C           9.9451    4.5485   32.6507 C.ar    1  UNL1        0.0000
   2162 C          -4.3614    3.5024   34.4844 C.ar    1  UNL1        0.0000
   2163 C           5.1245   -2.9947   34.5760 C.ar    1  UNL1        0.0000
   2164 C           0.5427   10.9913   32.5529 C.ar    1  UNL1        0.0000
   2165 C           9.6446    4.7379   34.0393 C.ar    1  UNL1        0.0000
   2166 C          -4.0757    3.3002   33.1168 C.ar    1  UNL1        0.0000
   2167 C           6.2109   -3.8585   34.9368 C.ar    1  UNL1        0.0000
   2168 C          -0.5361   11.8304   32.1974 C.ar    1  UNL1        0.0000
   2169 C           0.8395   10.7397   33.8882 C.ar    1  UNL1        0.0000
   2170 C           4.8491   -2.7592   33.2089 C.ar    1  UNL1        0.0000
   2171 C          11.0833    3.7951   32.2810 C.ar    1  UNL1        0.0000
   2172 C          -5.4736    4.2370   34.8808 C.ar    1  UNL1        0.0000
   2173 C           3.4328    5.1657   32.9733 C.ar    1  UNL1        0.0000
   2174 C           2.1317    2.9808   34.1688 C.ar    1  UNL1        0.0000
   2175 C           7.2238   10.4833   32.8788 C.ar    1  UNL1        0.0000
   2176 C          -1.4443   -2.5370   34.2237 C.ar    1  UNL1        0.0000
   2177 C           8.3791    1.5746   26.9121 C.ar    1  UNL1        0.0000
   2178 C           2.1141   13.9372   26.9552 C.ar    1  UNL1        0.0000
   2179 C          12.0659    7.0041   26.7860 C.ar    1  UNL1        0.0000
   2180 C          -1.5266    8.5070   26.7750 C.ar    1  UNL1        0.0000
   2181 C           4.1553    6.2450   32.2790 C.3     1  UNL1        0.0000
   2182 C           1.4348    1.8331   34.8214 C.3     1  UNL1        0.0000
   2183 C           6.5507    9.4445   32.0907 C.3     1  UNL1        0.0000
   2184 C          -0.7986   -1.4457   35.0049 C.3     1  UNL1        0.0000
   2185 C           8.4327    3.0636   26.9153 C.3     1  UNL1        0.0000
   2186 C           2.0957   12.4694   26.9091 C.3     1  UNL1        0.0000
   2187 C          10.7769    6.2950   26.8108 C.3     1  UNL1        0.0000
   2188 C          -0.2284    9.2425   26.8116 C.3     1  UNL1        0.0000
   2189 C           2.0630    5.2935   33.3736 C.ar    1  UNL1        0.0000
   2190 C           3.4881    2.8634   33.7959 C.ar    1  UNL1        0.0000
   2191 C           6.5037   11.6566   33.2022 C.ar    1  UNL1        0.0000
   2192 C          -0.7083   -3.6771   33.9205 C.ar    1  UNL1        0.0000
   2193 C           8.2888    0.9079   28.1287 C.ar    1  UNL1        0.0000
   2194 C          -2.6503    7.1655   39.0954 C.2    14  UNL14       0.0000
   2195 C          12.6441    7.3818   28.0198 C.ar    1  UNL1        0.0000
   2196 C          -6.9227    0.6683   38.9065 C.2     7  UNL7        0.0000
   2197 C           8.5860   10.3498   33.3025 C.ar    1  UNL1        0.0000
   2198 C          -2.7897   -2.4104   33.8163 C.ar    1  UNL1        0.0000
   2199 C           4.1114    3.9468   33.2038 C.ar    1  UNL1        0.0000
   2200 C           1.4383    4.1688   33.9626 C.ar    1  UNL1        0.0000
   2201 C           7.8713   -0.1261   38.9243 C.2    15  UNL15       0.0000
   2202 C          -2.1721    8.1527   27.9795 C.ar    1  UNL1        0.0000
   2203 C           3.5453   -6.6188   39.0553 C.2    11  UNL11       0.0000
   2204 C           2.0743   14.6625   28.1904 C.ar    1  UNL1        0.0000
   2205 N           1.3561    6.4588   33.2420 N.pl3   1  UNL1        0.0000
   2206 N           1.9408   14.0568   29.4073 N.pl3   1  UNL1        0.0000
   2207 N           7.4032   -0.4948   37.6923 N.pl3  15  UNL15       0.0000
   2208 N           9.3332    9.2285   33.0660 N.pl3   1  UNL1        0.0000
   2209 N           8.5426    5.4104   34.4820 N.pl3   1  UNL1        0.0000
   2210 N           6.5229   -4.1753   36.2267 N.pl3   1  UNL1        0.0000
   2211 O           8.0930    5.8432   31.9073 O.3     1  UNL1        0.0000
   2212 O          -2.5245    2.1493   35.1571 O.3     1  UNL1        0.0000
   2213 O           4.5473   -2.5220   36.8337 O.3     1  UNL1        0.0000
   2214 O           1.0576   10.5357   30.2746 O.3     1  UNL1        0.0000
   2215 O           2.4123    9.6873   31.8759 O.3     1  UNL1        0.0000
   2216 O           3.2991   -1.5973   35.1982 O.3     1  UNL1        0.0000
   2217 O           9.4289    4.8909   30.3560 O.3     1  UNL1        0.0000
   2218 O          -3.6997    3.2432   36.7517 O.3     1  UNL1        0.0000
   2219 O           6.7576    5.2136   29.5581 O.3     1  UNL1        0.0000
   2220 O          -1.0500    2.8034   37.4437 O.3     1  UNL1        0.0000
   2221 O           8.1708    7.2300   29.4912 O.3     1  UNL1        0.0000
   2222 O          -2.5385    0.8550   37.6278 O.3     1  UNL1        0.0000
   2223 O           1.9013   -2.3281   37.4506 O.3     1  UNL1        0.0000
   2224 O           3.7037   10.4033   29.5873 O.3     1  UNL1        0.0000
   2225 O           3.1379   -0.2169   37.7037 O.3     1  UNL1        0.0000
   2226 O           2.5469    8.2356   29.4295 O.3     1  UNL1        0.0000
   2227 O           5.3989    6.0569   31.9890 O.3     1  UNL1        0.0000
   2228 O           0.1752    1.9130   35.0088 O.3     1  UNL1        0.0000
   2229 O           7.1797    8.3849   31.7643 O.3     1  UNL1        0.0000
   2230 O          -1.5266   -0.4731   35.3926 O.3     1  UNL1        0.0000
   2231 O           3.5590   -3.8134   39.1449 O.3     1  UNL1        0.0000
   2232 O           2.0013   11.8022   27.9973 O.3     1  UNL1        0.0000
   2233 O           5.3544   -1.4902   39.0625 O.3     1  UNL1        0.0000
   2234 O           0.3084    9.4077   27.9659 O.3     1  UNL1        0.0000
   2235 O           5.3214    9.6405   31.7371 O.3     1  UNL1        0.0000
   2236 O           0.4487   -1.5402   35.2561 O.3     1  UNL1        0.0000
   2237 O           3.5328    7.3233   31.9764 O.3     1  UNL1        0.0000
   2238 O           2.1550    0.8310   35.1637 O.3     1  UNL1        0.0000
   2239 O          10.2570    6.0092   27.9553 O.3     1  UNL1        0.0000
   2240 O          -4.5800    2.1708   39.0782 O.3     1  UNL1        0.0000
   2241 O           8.4866    3.6642   28.0332 O.3     1  UNL1        0.0000
   2242 O          -2.6663    4.4066   39.1256 O.3     1  UNL1        0.0000
   2243 O           5.2321    7.7099   29.7187 O.3     1  UNL1        0.0000
   2244 O           0.4106    0.3447   37.3246 O.3     1  UNL1        0.0000
   2245 O           7.6485    6.1396   26.9041 O.3     1  UNL1        0.0000
   2246 O           2.8721    9.3574   26.8194 O.3     1  UNL1        0.0000
   2247 H           0.6190    3.3766   39.2545 H      28  UNL28       0.0000
   2248 H           2.0762    2.9357   36.9325 H      28  UNL28       0.0000
   2249 C           1.6466    3.0600   39.1170 C.2    28  UNL28       0.0000
   2250 H           4.6325    3.9753   36.2577 H      28  UNL28       0.0000
   2251 C           2.3655    2.8432   37.9702 C.2    28  UNL28       0.0000
   2252 H           1.8384    3.9196   41.8264 H      28  UNL28       0.0000
   2253 N           2.4977    2.7833   40.1760 N.pl3  28  UNL28       0.0000
   2254 C           5.3690    3.4093   36.8423 C.3    28  UNL28       0.0000
   2255 H           5.7788    4.0505   37.6316 H      28  UNL28       0.0000
   2256 C           2.1431    2.8922   41.5990 C.3    28  UNL28       0.0000
   2257 N           3.6412    2.4541   38.3395 N.pl3  28  UNL28       0.0000
   2258 H           1.3165    2.2077   41.8215 H      28  UNL28       0.0000
   2259 H           6.1839    3.1291   36.1592 H      28  UNL28       0.0000
   2260 C           3.6958    2.4131   39.6825 C.3    28  UNL28       0.0000
   2261 C           4.7579    2.1363   37.4190 C.3    28  UNL28       0.0000
   2262 H           4.3478    1.4768   36.6450 H      28  UNL28       0.0000
   2263 H           3.0105    2.6084   42.2029 H      28  UNL28       0.0000
   2264 H           4.5574    2.1336   40.2753 H      28  UNL28       0.0000
   2265 H           5.4815    1.5481   37.9960 H      28  UNL28       0.0000
   2266 TI          0.6358   32.6291   11.5235 Ti      1  UNL1        0.0000
   2267 TI         11.7137   35.6919    1.9128 Ti      1  UNL1        0.0000
   2268 TI          5.1807   29.3143    9.6276 Ti      1  UNL1        0.0000
   2269 TI          7.1215   39.0056    3.8044 Ti      1  UNL1        0.0000
   2270 TI          5.4489   39.8941    1.8373 Ti      1  UNL1        0.0000
   2271 TI          6.6519   28.1496   11.5968 Ti      1  UNL1        0.0000
   2272 TI          2.0830   31.3288    9.6244 Ti      1  UNL1        0.0000
   2273 TI          9.9979   36.7356    3.7615 Ti      1  UNL1        0.0000
   2274 H           7.2836   31.9971    7.1475 H       1  UNL1        0.0000
   2275 H           3.5980   26.3272    7.4332 H       1  UNL1        0.0000
   2276 H           8.7474   41.7914    6.0344 H       1  UNL1        0.0000
   2277 H           0.6482   36.6494   11.3553 H       1  UNL1        0.0000
   2278 H          11.5399   31.5618    2.2224 H       1  UNL1        0.0000
   2279 H          -3.1172   31.0167   11.1746 H       1  UNL1        0.0000
   2280 H          15.3863   37.1697    2.1016 H       1  UNL1        0.0000
   2281 H           6.8832   23.9934   11.2923 H       1  UNL1        0.0000
   2282 H           1.5453   38.5102    2.1035 H       1  UNL1        0.0000
   2283 H           8.4228   33.9546    6.0619 H       1  UNL1        0.0000
   2284 H           3.6696   34.2988    7.4479 H       1  UNL1        0.0000
   2285 H          -0.0684   28.5600    7.2442 H       1  UNL1        0.0000
   2286 H           6.3146   38.4704   -0.0835 H       1  UNL1        0.0000
   2287 H          10.6937   37.1560    0.0873 H       1  UNL1        0.0000
   2288 H           4.0552   30.9893   11.1934 H       1  UNL1        0.0000
   2289 H           8.0534   37.2555    2.2085 H       1  UNL1        0.0000
   2290 H           7.2895   27.9693    6.1491 H       1  UNL1        0.0000
   2291 H           4.9504   40.1575    7.3050 H       1  UNL1        0.0000
   2292 H          -2.3929   34.4389    9.1195 H       1  UNL1        0.0000
   2293 H          14.5501   33.7413    4.3936 H       1  UNL1        0.0000
   2294 H           0.0703   32.7898    6.0062 H       1  UNL1        0.0000
   2295 H           2.5206   42.0826    4.3243 H       1  UNL1        0.0000
   2296 H           3.6244   36.4956    6.5342 H       1  UNL1        0.0000
   2297 H           5.0378   37.2597    5.8373 H       1  UNL1        0.0000
   2298 H           5.2841   43.1117    2.6250 H       1  UNL1        0.0000
   2299 H          11.5037   29.5077    3.4220 H       1  UNL1        0.0000
   2300 H          11.0815   30.0092   10.0486 H       1  UNL1        0.0000
   2301 H           9.7303   29.2014   10.8162 H       1  UNL1        0.0000
   2302 H          13.6058   39.3434    6.3961 H       1  UNL1        0.0000
   2303 H          12.2342   38.6117    5.5873 H       1  UNL1        0.0000
   2304 H          11.7332   35.7019    8.6413 H       1  UNL1        0.0000
   2305 H          11.2376   35.9684    6.9780 H       1  UNL1        0.0000
   2306 H          10.6479   25.3833    9.5952 H       1  UNL1        0.0000
   2307 H           9.3121   26.3757   10.1562 H       1  UNL1        0.0000
   2308 C          12.3858   35.1904    4.7582 C.3     1  UNL1        0.0000
   2309 C          -0.1971   32.9961    8.7045 C.3     1  UNL1        0.0000
   2310 C           7.5472   27.7309    8.7584 C.3     1  UNL1        0.0000
   2311 C           4.6619   40.4370    4.6723 C.2     1  UNL1        0.0000
   2312 C          13.2184   34.6180    5.8265 C.ar    1  UNL1        0.0000
   2313 C          -1.0882   33.5719    7.6602 C.ar    1  UNL1        0.0000
   2314 C           8.3977   27.0748    7.7518 C.ar    1  UNL1        0.0000
   2315 C           3.8160   41.0608    5.7287 C.2     1  UNL1        0.0000
   2316 C          12.9178   34.8074    7.2151 C.ar    1  UNL1        0.0000
   2317 C          -0.8024   33.3697    6.2926 C.ar    1  UNL1        0.0000
   2318 C           9.4841   26.2110    8.1126 C.ar    1  UNL1        0.0000
   2319 C           2.7371   41.8999    5.3731 C.3     1  UNL1        0.0000
   2320 C           4.1127   40.8092    7.0640 C.3     1  UNL1        0.0000
   2321 C           8.1224   27.3103    6.3847 C.ar    1  UNL1        0.0000
   2322 C          14.3565   33.8646    5.4567 C.ar    1  UNL1        0.0000
   2323 C          -2.2004   34.3065    8.0566 C.ar    1  UNL1        0.0000
   2324 C           6.7060   35.2352    6.1491 C.ar    1  UNL1        0.0000
   2325 C           5.4050   33.0503    7.3445 C.ar    1  UNL1        0.0000
   2326 C          10.4970   40.5528    6.0546 C.2     1  UNL1        0.0000
   2327 C           1.8290   27.5325    7.3994 C.ar    1  UNL1        0.0000
   2328 C          11.6523   31.6441    0.0879 C.2     1  UNL1        0.0000
   2329 C           5.3874   44.0067    0.1310 C.2     1  UNL1        0.0000
   2330 C          15.3391   37.0736   -0.0382 C.2     1  UNL1        0.0000
   2331 C           1.7466   38.5765   -0.0492 C.2     1  UNL1        0.0000
   2332 C           7.4285   36.3145    5.4547 C.3     1  UNL1        0.0000
   2333 C           4.7080   31.9026    7.9972 C.3     1  UNL1        0.0000
   2334 C           9.8240   39.5140    5.2665 C.2     1  UNL1        0.0000
   2335 C           2.4746   28.6238    8.1807 C.3     1  UNL1        0.0000
   2336 C          11.7060   33.1331    0.0911 C.2     1  UNL1        0.0000
   2337 C           5.3689   42.5389    0.0849 C.2     1  UNL1        0.0000
   2338 C          14.0501   36.3645   -0.0134 C.2     1  UNL1        0.0000
   2339 C           3.0449   39.3120   -0.0126 C.2     1  UNL1        0.0000
   2340 C           5.3363   35.3630    6.5494 C.ar    1  UNL1        0.0000
   2341 C           6.7613   32.9329    6.9717 C.ar    1  UNL1        0.0000
   2342 C           9.7770   41.7261    6.3780 C.3     1  UNL1        0.0000
   2343 C           2.5649   26.3924    7.0963 C.ar    1  UNL1        0.0000
   2344 C          11.5620   30.9774    1.3045 C.2     1  UNL1        0.0000
   2345 C           0.6230   37.2350   12.2712 C.3     1  UNL1        0.0000
   2346 C          15.9174   37.4513    1.1955 C.2     1  UNL1        0.0000
   2347 C          -3.6495   30.7378   12.0823 C.ar    1  UNL1        0.0000
   2348 C          11.8593   40.4193    6.4782 C.3     1  UNL1        0.0000
   2349 C           0.4836   27.6591    6.9921 C.ar    1  UNL1        0.0000
   2350 C           7.3847   34.0163    6.3796 C.ar    1  UNL1        0.0000
   2351 C           4.7115   34.2383    7.1384 C.ar    1  UNL1        0.0000
   2352 C          11.1445   29.9434   12.1001 C.ar    1  UNL1        0.0000
   2353 C           1.1012   38.2222    1.1553 C.2     1  UNL1        0.0000
   2354 C           6.8186   23.4507   12.2310 C.ar    1  UNL1        0.0000
   2355 C           5.3476   44.7320    1.3662 C.2     1  UNL1        0.0000
   2356 N           4.6293   36.5283    6.4177 N.pl3   1  UNL1        0.0000
   2357 N           5.2140   44.1263    2.5831 N.2     1  UNL1        0.0000
   2358 N          10.6764   29.5747   10.8681 N.pl3   1  UNL1        0.0000
   2359 N          12.6065   39.2980    6.2417 N.3     1  UNL1        0.0000
   2360 N          11.8159   35.4799    7.6577 N.pl3   1  UNL1        0.0000
   2361 N           9.7962   25.8942    9.4025 N.pl3   1  UNL1        0.0000
   2362 O          11.3662   35.9127    5.0831 O.3     1  UNL1        0.0000
   2363 O           0.7487   32.2188    8.3329 O.3     1  UNL1        0.0000
   2364 O           7.8205   27.5475   10.0094 O.3     1  UNL1        0.0000
   2365 O           4.3309   40.6052    3.4504 O.2     1  UNL1        0.0000
   2366 O           5.6855   39.7568    5.0517 O.2     1  UNL1        0.0000
   2367 O           6.5724   28.4722    8.3739 O.3     1  UNL1        0.0000
   2368 O          12.7021   34.9604    3.5318 O.3     1  UNL1        0.0000
   2369 O          -0.4264   33.3127    9.9274 O.3     1  UNL1        0.0000
   2370 O          10.0308   35.2831    2.7339 O.3     1  UNL1        0.0000
   2371 O           2.2232   32.8729   10.6194 O.3     1  UNL1        0.0000
   2372 O          11.4441   37.2995    2.6670 O.3     1  UNL1        0.0000
   2373 O           0.7347   30.9245   10.8036 O.3     1  UNL1        0.0000
   2374 O           5.1746   27.7414   10.6264 O.3     1  UNL1        0.0000
   2375 O           6.9769   40.4728    2.7631 O.3     1  UNL1        0.0000
   2376 O           6.4111   29.8526   10.8795 O.3     1  UNL1        0.0000
   2377 O           5.8202   38.3051    2.6052 O.3     1  UNL1        0.0000
   2378 O           8.6721   36.1264    5.1648 O.3     1  UNL1        0.0000
   2379 O           3.4485   31.9825    8.1845 O.3     1  UNL1        0.0000
   2380 O          10.4530   38.4544    4.9401 O.2     1  UNL1        0.0000
   2381 O           1.7466   29.5964    8.5683 O.3     1  UNL1        0.0000
   2382 O           6.8323   26.2561   12.3207 O.3     1  UNL1        0.0000
   2383 O           5.2745   41.8717    1.1731 O.2     1  UNL1        0.0000
   2384 O           8.6277   28.5793   12.2383 O.3     1  UNL1        0.0000
   2385 O           3.5817   39.4772    1.1417 O.2     1  UNL1        0.0000
   2386 O           8.5947   39.7100    4.9129 O.2     1  UNL1        0.0000
   2387 O           3.7219   28.5293    8.4319 O.3     1  UNL1        0.0000
   2388 O           6.8060   37.3928    5.1522 O.3     1  UNL1        0.0000
   2389 O           5.4283   30.9005    8.3395 O.3     1  UNL1        0.0000
   2390 O          13.5302   36.0787    1.1311 O.2     1  UNL1        0.0000
   2391 O          -1.3068   32.2403   12.2540 O.3     1  UNL1        0.0000
   2392 O          11.7598   33.7337    1.2090 O.2     1  UNL1        0.0000
   2393 O           0.6069   34.4761   12.3014 O.2     1  UNL1        0.0000
   2394 O           8.5053   37.7794    2.8945 O.3     1  UNL1        0.0000
   2395 O           3.6838   30.4142   10.5004 O.3     1  UNL1        0.0000
   2396 O          10.9217   36.2091    0.0799 O.3     1  UNL1        0.0000
   2397 O           6.1453   39.4269   -0.0049 O.3     1  UNL1        0.0000
   2398 H           3.8922   33.4461   12.4303 H      29  UNL29       0.0000
   2399 H           5.3495   33.0052   10.1083 H      29  UNL29       0.0000
   2400 C           4.9198   33.1295   12.2927 C.2    29  UNL29       0.0000
   2401 H           7.9057   34.0448    9.4335 H      29  UNL29       0.0000
   2402 C           5.6387   32.9127   11.1460 C.2    29  UNL29       0.0000
   2403 H           5.1116   33.9891   15.0022 H      29  UNL29       0.0000
   2404 N           5.7710   32.8528   13.3518 N.pl3  29  UNL29       0.0000
   2405 C           8.6423   33.4788   10.0181 C.3    29  UNL29       0.0000
   2406 H           9.0521   34.1200   10.8074 H      29  UNL29       0.0000
   2407 C           5.4164   32.9617   14.7748 C.3    29  UNL29       0.0000
   2408 N           6.9144   32.5236   11.5153 N.pl3  29  UNL29       0.0000
   2409 H           4.5897   32.2772   14.9973 H      29  UNL29       0.0000
   2410 H           9.4572   33.1986    9.3350 H      29  UNL29       0.0000
   2411 C           6.9690   32.4826   12.8583 C.3    29  UNL29       0.0000
   2412 C           8.0312   32.2058   10.5947 C.3    29  UNL29       0.0000
   2413 H           7.6211   31.5463    9.8208 H      29  UNL29       0.0000
   2414 H           6.2837   32.6779   15.3787 H      29  UNL29       0.0000
   2415 H           7.8306   32.2031   13.4511 H      29  UNL29       0.0000
   2416 H           8.7547   31.6176   11.1718 H      29  UNL29       0.0000
   2417 TI         -4.1005   25.1644   24.9356 Ti      1  UNL1        0.0000
   2418 TI          6.9775   28.2271   15.3249 Ti      1  UNL1        0.0000
   2419 TI          0.4444   21.8496   23.0397 Ti      1  UNL1        0.0000
   2420 TI          2.3853   31.5409   17.2165 Ti      1  UNL1        0.0000
   2421 TI          0.7127   32.4293   15.2494 Ti      1  UNL1        0.0000
   2422 TI          1.9156   20.6849   25.0089 Ti      1  UNL1        0.0000
   2423 TI         -2.6533   23.8641   23.0365 Ti      1  UNL1        0.0000
   2424 TI          5.2617   29.2709   17.1736 Ti      1  UNL1        0.0000
   2425 H           2.5473   24.5324   20.5596 H       1  UNL1        0.0000
   2426 H          -1.1383   18.8625   20.8453 H       1  UNL1        0.0000
   2427 H           4.0112   34.3267   19.4465 H       1  UNL1        0.0000
   2428 H          -4.0880   29.1846   24.7674 H       1  UNL1        0.0000
   2429 H           6.8036   24.0971   15.6345 H       1  UNL1        0.0000
   2430 H          -7.8534   23.5519   24.5867 H       1  UNL1        0.0000
   2431 H          10.6500   29.7049   15.5137 H       1  UNL1        0.0000
   2432 H           2.1470   16.5287   24.7045 H       1  UNL1        0.0000
   2433 H          -3.1909   31.0454   15.5156 H       1  UNL1        0.0000
   2434 H           3.6866   26.4899   19.4740 H       1  UNL1        0.0000
   2435 H          -1.0666   26.8341   20.8600 H       1  UNL1        0.0000
   2436 H          -4.8046   21.0953   20.6563 H       1  UNL1        0.0000
   2437 H           1.5783   31.0057   13.3287 H       1  UNL1        0.0000
   2438 H           5.9574   29.6913   13.4994 H       1  UNL1        0.0000
   2439 H          -0.6810   23.5246   24.6055 H       1  UNL1        0.0000
   2440 H           3.3171   29.7908   15.6206 H       1  UNL1        0.0000
   2441 H           2.5532   20.5046   19.5612 H       1  UNL1        0.0000
   2442 H           0.2141   32.6927   20.7171 H       1  UNL1        0.0000
   2443 H          -7.1291   26.9742   22.5316 H       1  UNL1        0.0000
   2444 H           9.8138   26.2766   17.8057 H       1  UNL1        0.0000
   2445 H          -4.6660   25.3251   19.4183 H       1  UNL1        0.0000
   2446 H          -2.2157   34.6179   17.7364 H       1  UNL1        0.0000
   2447 H          -1.1119   29.0308   19.9463 H       1  UNL1        0.0000
   2448 H           0.3015   29.7950   19.2494 H       1  UNL1        0.0000
   2449 H           0.5479   35.6470   16.0371 H       1  UNL1        0.0000
   2450 H           6.7675   22.0429   16.8341 H       1  UNL1        0.0000
   2451 H           6.3453   22.5445   23.4607 H       1  UNL1        0.0000
   2452 H           4.9940   21.7367   24.2283 H       1  UNL1        0.0000
   2453 H           8.8695   31.8786   19.8082 H       1  UNL1        0.0000
   2454 H           7.4979   31.1470   18.9994 H       1  UNL1        0.0000
   2455 H           6.9970   28.2372   22.0534 H       1  UNL1        0.0000
   2456 H           6.5014   28.5037   20.3901 H       1  UNL1        0.0000
   2457 H           5.9116   17.9186   23.0073 H       1  UNL1        0.0000
   2458 H           4.5758   18.9110   23.5683 H       1  UNL1        0.0000
   2459 C           7.6495   27.7257   18.1703 C.3     1  UNL1        0.0000
   2460 C          -4.9334   25.5314   22.1166 C.3     1  UNL1        0.0000
   2461 C           2.8110   20.2662   22.1705 C.3     1  UNL1        0.0000
   2462 C          -0.0744   32.9723   18.0844 C.2     1  UNL1        0.0000
   2463 C           8.4821   27.1533   19.2386 C.ar    1  UNL1        0.0000
   2464 C          -5.8244   26.1072   21.0723 C.ar    1  UNL1        0.0000
   2465 C           3.6614   19.6101   21.1639 C.ar    1  UNL1        0.0000
   2466 C          -0.9203   33.5961   19.1408 C.2     1  UNL1        0.0000
   2467 C           8.1816   27.3427   20.6272 C.ar    1  UNL1        0.0000
   2468 C          -5.5387   25.9050   19.7047 C.ar    1  UNL1        0.0000
   2469 C           4.7478   18.7463   21.5247 C.ar    1  UNL1        0.0000
   2470 C          -1.9992   34.4351   18.7852 C.3     1  UNL1        0.0000
   2471 C          -0.6235   33.3445   20.4761 C.3     1  UNL1        0.0000
   2472 C           3.3861   19.8456   19.7968 C.ar    1  UNL1        0.0000
   2473 C           9.6203   26.3998   18.8688 C.ar    1  UNL1        0.0000
   2474 C          -6.9367   26.8418   21.4687 C.ar    1  UNL1        0.0000
   2475 C           1.9698   27.7705   19.5612 C.ar    1  UNL1        0.0000
   2476 C           0.6687   25.5856   20.7567 C.ar    1  UNL1        0.0000
   2477 C           5.7607   33.0881   19.4667 C.2     1  UNL1        0.0000
   2478 C          -2.9073   20.0678   20.8116 C.ar    1  UNL1        0.0000
   2479 C           6.9161   24.1794   13.5000 C.ar    1  UNL1        0.0000
   2480 C           0.6511   36.5420   13.5431 C.2     1  UNL1        0.0000
   2481 C          10.6029   29.6089   13.3739 C.ar    1  UNL1        0.0000
   2482 C          -2.9896   31.1117   13.3629 C.ar    1  UNL1        0.0000
   2483 C           2.6923   28.8498   18.8668 C.3     1  UNL1        0.0000
   2484 C          -0.0283   24.4379   21.4093 C.3     1  UNL1        0.0000
   2485 C           5.0877   32.0493   18.6786 C.2     1  UNL1        0.0000
   2486 C          -2.2617   21.1590   21.5928 C.3     1  UNL1        0.0000
   2487 C           6.9697   25.6683   13.5032 C.3     1  UNL1        0.0000
   2488 C           0.6327   35.0742   13.4970 C.2     1  UNL1        0.0000
   2489 C           9.3139   28.8998   13.3987 C.3     1  UNL1        0.0000
   2490 C          -1.6914   31.8472   13.3995 C.3     1  UNL1        0.0000
   2491 C           0.6000   27.8983   19.9615 C.ar    1  UNL1        0.0000
   2492 C           2.0250   25.4682   20.3838 C.ar    1  UNL1        0.0000
   2493 C           5.0407   34.2614   19.7901 C.3     1  UNL1        0.0000
   2494 C          -2.1714   18.9277   20.5084 C.ar    1  UNL1        0.0000
   2495 C           6.8258   23.5126   14.7166 C.ar    1  UNL1        0.0000
   2496 C          -4.1133   29.7703   25.6833 C.3     1  UNL1        0.0000
   2497 C          11.1811   29.9865   14.6077 C.ar    1  UNL1        0.0000
   2498 C          -8.3857   23.2731   25.4944 C.ar    1  UNL1        0.0000
   2499 C           7.1230   32.9545   19.8903 C.3     1  UNL1        0.0000
   2500 C          -4.2527   20.1944   20.4042 C.ar    1  UNL1        0.0000
   2501 C           2.6484   26.5515   19.7917 C.ar    1  UNL1        0.0000
   2502 C          -0.0247   26.7735   20.5505 C.ar    1  UNL1        0.0000
   2503 C           6.4083   22.4787   25.5122 C.ar    1  UNL1        0.0000
   2504 C          -3.6351   30.7575   14.5674 C.ar    1  UNL1        0.0000
   2505 C           2.0823   15.9860   25.6431 C.ar    1  UNL1        0.0000
   2506 C           0.6113   37.2673   14.7783 C.2     1  UNL1        0.0000
   2507 N          -0.1069   29.0636   19.8299 N.pl3   1  UNL1        0.0000
   2508 N           0.4777   36.6616   15.9952 N.2     1  UNL1        0.0000
   2509 N           5.9401   22.1100   24.2802 N.pl3   1  UNL1        0.0000
   2510 N           7.8702   31.8333   19.6538 N.3     1  UNL1        0.0000
   2511 N           7.0796   28.0152   21.0699 N.pl3   1  UNL1        0.0000
   2512 N           5.0599   18.4295   22.8146 N.pl3   1  UNL1        0.0000
   2513 O           6.6299   28.4480   18.4952 O.3     1  UNL1        0.0000
   2514 O          -3.9875   24.7540   21.7450 O.3     1  UNL1        0.0000
   2515 O           3.0843   20.0828   23.4215 O.3     1  UNL1        0.0000
   2516 O          -0.4054   33.1405   16.8625 O.2     1  UNL1        0.0000
   2517 O           0.9493   32.2920   18.4638 O.2     1  UNL1        0.0000
   2518 O           1.8361   21.0075   21.7860 O.3     1  UNL1        0.0000
   2519 O           7.9659   27.4956   16.9439 O.3     1  UNL1        0.0000
   2520 O          -5.1627   25.8480   23.3396 O.3     1  UNL1        0.0000
   2521 O           5.2945   27.8184   16.1460 O.3     1  UNL1        0.0000
   2522 O          -2.5130   25.4082   24.0316 O.3     1  UNL1        0.0000
   2523 O           6.7078   29.8347   16.0791 O.3     1  UNL1        0.0000
   2524 O          -4.0015   23.4598   24.2157 O.3     1  UNL1        0.0000
   2525 O           0.4383   20.2766   24.0385 O.3     1  UNL1        0.0000
   2526 O           2.2407   33.0081   16.1752 O.3     1  UNL1        0.0000
   2527 O           1.6749   22.3879   24.2916 O.3     1  UNL1        0.0000
   2528 O           1.0839   30.8404   16.0173 O.3     1  UNL1        0.0000
   2529 O           3.9359   28.6617   18.5769 O.3     1  UNL1        0.0000
   2530 O          -1.2878   24.5178   21.5966 O.3     1  UNL1        0.0000
   2531 O           5.7167   30.9897   18.3522 O.2     1  UNL1        0.0000
   2532 O          -2.9897   22.1317   21.9804 O.3     1  UNL1        0.0000
   2533 O           2.0960   18.7914   25.7328 O.3     1  UNL1        0.0000
   2534 O           0.5382   34.4070   14.5852 O.2     1  UNL1        0.0000
   2535 O           3.8914   21.1146   25.6504 O.3     1  UNL1        0.0000
   2536 O          -1.1546   32.0125   14.5538 O.3     1  UNL1        0.0000
   2537 O           3.8584   32.2453   18.3250 O.2     1  UNL1        0.0000
   2538 O          -1.0143   21.0646   21.8440 O.3     1  UNL1        0.0000
   2539 O           2.0697   29.9280   18.5643 O.3     1  UNL1        0.0000
   2540 O           0.6920   23.4358   21.7516 O.3     1  UNL1        0.0000
   2541 O           8.7939   28.6140   14.5432 O.3     1  UNL1        0.0000
   2542 O          -6.0430   24.7756   25.6661 O.3     1  UNL1        0.0000
   2543 O           7.0235   26.2690   14.6211 O.3     1  UNL1        0.0000
   2544 O          -4.1293   27.0114   25.7135 O.2     1  UNL1        0.0000
   2545 O           3.7690   30.3147   16.3066 O.3     1  UNL1        0.0000
   2546 O          -1.0525   22.9495   23.9125 O.3     1  UNL1        0.0000
   2547 O           6.1855   28.7444   13.4920 O.3     1  UNL1        0.0000
   2548 O           1.4091   31.9622   13.4072 O.3     1  UNL1        0.0000
   2549 H          -0.8440   25.9814   25.8424 H      30  UNL30       0.0000
   2550 H           0.6132   25.5404   23.5204 H      30  UNL30       0.0000
   2551 C           0.1835   25.6648   25.7048 C.2    30  UNL30       0.0000
   2552 H           3.1694   26.5800   22.8456 H      30  UNL30       0.0000
   2553 C           0.9025   25.4479   24.5581 C.2    30  UNL30       0.0000
   2554 H           0.3753   26.5244   28.4143 H      30  UNL30       0.0000
   2555 N           1.0347   25.3881   26.7639 N.pl3  30  UNL30       0.0000
   2556 C           3.9060   26.0140   23.4302 C.3    30  UNL30       0.0000
   2557 H           4.3158   26.6553   24.2195 H      30  UNL30       0.0000
   2558 C           0.6801   25.4970   28.1869 C.3    30  UNL30       0.0000
   2559 N           2.1781   25.0588   24.9274 N.pl3  30  UNL30       0.0000
   2560 H          -0.1465   24.8125   28.4094 H      30  UNL30       0.0000
   2561 H           4.7209   25.7339   22.7471 H      30  UNL30       0.0000
   2562 C           2.2328   25.0178   26.2704 C.3    30  UNL30       0.0000
   2563 C           3.2949   24.7410   24.0069 C.3    30  UNL30       0.0000
   2564 H           2.8848   24.0816   23.2329 H      30  UNL30       0.0000
   2565 H           1.5474   25.2132   28.7908 H      30  UNL30       0.0000
   2566 H           3.0944   24.7384   26.8632 H      30  UNL30       0.0000
   2567 H           4.0184   24.1529   24.5839 H      30  UNL30       0.0000
   2568 TI         -8.8367   17.6997   38.3477 Ti      1  UNL1        0.0000
   2569 TI          2.2412   20.7624   28.7370 Ti      1  UNL1        0.0000
   2570 TI         -4.2919   14.3849   36.4518 Ti      1  UNL1        0.0000
   2571 TI         -2.3510   24.0762   30.6286 Ti      1  UNL1        0.0000
   2572 TI         -4.0236   24.9646   28.6615 Ti      1  UNL1        0.0000
   2573 TI         -2.8206   13.2202   38.4211 Ti      1  UNL1        0.0000
   2574 TI         -7.3895   16.3993   36.4486 Ti      1  UNL1        0.0000
   2575 TI          0.5254   21.8061   30.5857 Ti      1  UNL1        0.0000
   2576 H          -2.1890   17.0677   33.9718 H       1  UNL1        0.0000
   2577 H          -5.8745   11.3978   34.2574 H       1  UNL1        0.0000
   2578 H          -0.7251   26.8620   32.8586 H       1  UNL1        0.0000
   2579 H          -8.8243   21.7199   38.1795 H      16  UNL16       0.0000
   2580 H           2.0673   16.6323   29.0466 H       1  UNL1        0.0000
   2581 H         -12.5897   16.0872   37.9988 H      10  UNL10       0.0000
   2582 H           5.9137   22.2402   28.9258 H       1  UNL1        0.0000
   2583 H          -2.5893    9.0640   38.1166 H      14  UNL14       0.0000
   2584 H          -7.9272   23.5807   28.9277 H       1  UNL1        0.0000
   2585 H          -1.0497   19.0252   32.8862 H       1  UNL1        0.0000
   2586 H          -5.8029   19.3694   34.2721 H       1  UNL1        0.0000
   2587 H          -9.5409   13.6305   34.0684 H       1  UNL1        0.0000
   2588 H          -3.1579   23.5410   26.7408 H       1  UNL1        0.0000
   2589 H           1.2212   22.2266   26.9115 H       1  UNL1        0.0000
   2590 H          -5.4173   16.0599   38.0176 H       1  UNL1        0.0000
   2591 H          -1.4191   22.3261   29.0328 H       1  UNL1        0.0000
   2592 H          -2.1831   13.0398   32.9733 H       1  UNL1        0.0000
   2593 H          -4.5221   25.2280   34.1292 H       1  UNL1        0.0000
   2594 H         -11.8654   19.5095   35.9437 H       1  UNL1        0.0000
   2595 H           5.0775   18.8118   31.2178 H       1  UNL1        0.0000
   2596 H          -9.4022   17.8604   32.8304 H       1  UNL1        0.0000
   2597 H          -6.9519   27.1531   31.1485 H       1  UNL1        0.0000
   2598 H          -5.8481   21.5661   33.3584 H       1  UNL1        0.0000
   2599 H          -4.4348   22.3303   32.6615 H       1  UNL1        0.0000
   2600 H          -4.1884   28.1823   29.4492 H       1  UNL1        0.0000
   2601 H           2.0312   14.5782   30.2462 H       1  UNL1        0.0000
   2602 H           1.6090   15.0798   36.8729 H      17  UNL17       0.0000
   2603 H           0.2578   14.2720   37.6404 H      17  UNL17       0.0000
   2604 H           4.1333   24.4139   33.2204 H       1  UNL1        0.0000
   2605 H           2.7616   23.6823   32.4115 H       1  UNL1        0.0000
   2606 H           2.2607   20.7725   35.4656 H       1  UNL1        0.0000
   2607 H           1.7651   21.0390   33.8022 H       1  UNL1        0.0000
   2608 H           1.1754   10.4538   36.4194 H       1  UNL1        0.0000
   2609 H          -0.1605   11.4462   36.9805 H       1  UNL1        0.0000
   2610 C           2.9132   20.2610   31.5824 C.3     1  UNL1        0.0000
   2611 C          -9.6696   18.0666   35.5287 C.3     1  UNL1        0.0000
   2612 C          -1.9253   12.8014   35.5826 C.3     1  UNL1        0.0000
   2613 C          -4.8107   25.5076   31.4965 C.2     1  UNL1        0.0000
   2614 C           3.7458   19.6885   32.6507 C.ar    1  UNL1        0.0000
   2615 C         -10.5607   18.6425   34.4844 C.ar    1  UNL1        0.0000
   2616 C          -1.0748   12.1454   34.5760 C.ar    1  UNL1        0.0000
   2617 C          -5.6565   26.1314   32.5529 C.2     1  UNL1        0.0000
   2618 C           3.4453   19.8779   34.0393 C.ar    1  UNL1        0.0000
   2619 C         -10.2750   18.4403   33.1168 C.ar    1  UNL1        0.0000
   2620 C           0.0116   11.2815   34.9368 C.ar    1  UNL1        0.0000
   2621 C          -6.7354   26.9704   32.1974 C.3     1  UNL1        0.0000
   2622 C          -5.3598   25.8798   33.8882 C.3     1  UNL1        0.0000
   2623 C          -1.3502   12.3809   33.2089 C.ar    1  UNL1        0.0000
   2624 C           4.8840   18.9351   32.2810 C.ar    1  UNL1        0.0000
   2625 C         -11.6729   19.3771   34.8808 C.ar    1  UNL1        0.0000
   2626 C          -2.7665   20.3058   32.9733 C.ar    1  UNL1        0.0000
   2627 C          -4.0676   18.1208   34.1688 C.ar    1  UNL1        0.0000
   2628 C           1.0245   25.6234   32.8788 C.2     1  UNL1        0.0000
   2629 C          -7.6435   12.6031   34.2237 C.ar    1  UNL1        0.0000
   2630 C           2.1798   16.7146   26.9121 C.ar    1  UNL1        0.0000
   2631 C          -4.0852   29.0773   26.9552 C.2     1  UNL1        0.0000
   2632 C           5.8666   22.1441   26.7860 C.ar    1  UNL1        0.0000
   2633 C          -7.7259   23.6470   26.7750 C.ar    1  UNL1        0.0000
   2634 C          -2.0440   21.3850   32.2790 C.3     1  UNL1        0.0000
   2635 C          -4.7645   16.9732   34.8214 C.3     1  UNL1        0.0000
   2636 C           0.3514   24.5846   32.0907 C.2     1  UNL1        0.0000
   2637 C          -6.9979   13.6943   35.0049 C.3     1  UNL1        0.0000
   2638 C           2.2334   18.2036   26.9153 C.3     1  UNL1        0.0000
   2639 C          -4.1036   27.6095   26.9091 C.2     1  UNL1        0.0000
   2640 C           4.5776   21.4351   26.8108 C.3     1  UNL1        0.0000
   2641 C          -6.4276   24.3825   26.8116 C.3     1  UNL1        0.0000
   2642 C          -4.1363   20.4335   33.3736 C.ar    1  UNL1        0.0000
   2643 C          -2.7112   18.0035   33.7959 C.ar    1  UNL1        0.0000
   2644 C           0.3045   26.7967   33.2022 C.3     1  UNL1        0.0000
   2645 C          -6.9076   11.4630   33.9205 C.ar    1  UNL1        0.0000
   2646 C           2.0895   16.0479   28.1287 C.ar    1  UNL1        0.0000
   2647 C          -8.8496   22.3056   39.0954 C.3    31  UNL31       0.0000
   2648 C           6.4448   22.5218   28.0198 C.ar    1  UNL1        0.0000
   2649 C         -13.1220   15.8084   38.9065 C.2    10  UNL10       0.0000
   2650 C           2.3867   25.4898   33.3025 C.3     1  UNL1        0.0000
   2651 C          -8.9890   12.7297   33.8163 C.ar    1  UNL1        0.0000
   2652 C          -2.0878   19.0868   33.2038 C.ar    1  UNL1        0.0000
   2653 C          -4.7610   19.3088   33.9626 C.ar    1  UNL1        0.0000
   2654 C           1.6720   15.0140   38.9243 C.2    17  UNL17       0.0000
   2655 C          -8.3714   23.2928   27.9795 C.ar    1  UNL1        0.0000
   2656 C          -2.6540    8.5213   39.0553 C.2    14  UNL14       0.0000
   2657 C          -4.1250   29.8025   28.1904 C.2     1  UNL1        0.0000
   2658 N          -4.8432   21.5989   33.2420 N.pl3   1  UNL1        0.0000
   2659 N          -4.2585   29.1969   29.4073 N.2     1  UNL1        0.0000
   2660 N           1.2039   14.6453   37.6923 N.pl3  17  UNL17       0.0000
   2661 N           3.1339   24.3686   33.0660 N.3     1  UNL1        0.0000
   2662 N           2.3433   20.5504   34.4820 N.pl3   1  UNL1        0.0000
   2663 N           0.3236   10.9648   36.2267 N.pl3   1  UNL1        0.0000
   2664 O           1.8937   20.9833   31.9073 O.3     1  UNL1        0.0000
   2665 O          -8.7238   17.2893   35.1571 O.3     1  UNL1        0.0000
   2666 O          -1.6520   12.6181   36.8337 O.3     1  UNL1        0.0000
   2667 O          -5.1417   25.6758   30.2746 O.2     1  UNL1        0.0000
   2668 O          -3.7870   24.8273   31.8759 O.2     1  UNL1        0.0000
   2669 O          -2.9002   13.5427   35.1982 O.3     1  UNL1        0.0000
   2670 O           3.2296   20.0309   30.3560 O.3     1  UNL1        0.0000
   2671 O          -9.8989   18.3832   36.7517 O.3     1  UNL1        0.0000
   2672 O           0.5583   20.3537   29.5581 O.3     1  UNL1        0.0000
   2673 O          -7.2493   17.9435   37.4437 O.3     1  UNL1        0.0000
   2674 O           1.9716   22.3700   29.4912 O.3     1  UNL1        0.0000
   2675 O          -8.7378   15.9951   37.6278 O.3     1  UNL1        0.0000
   2676 O          -4.2980   12.8119   37.4506 O.3     1  UNL1        0.0000
   2677 O          -2.4956   25.5434   29.5873 O.3     1  UNL1        0.0000
   2678 O          -3.0614   14.9231   37.7037 O.3     1  UNL1        0.0000
   2679 O          -3.6524   23.3756   29.4295 O.3     1  UNL1        0.0000
   2680 O          -0.8004   21.1969   31.9890 O.3     1  UNL1        0.0000
   2681 O          -6.0240   17.0530   35.0088 O.3     1  UNL1        0.0000
   2682 O           0.9805   23.5250   31.7643 O.2     1  UNL1        0.0000
   2683 O          -7.7259   14.6669   35.3926 O.3     1  UNL1        0.0000
   2684 O          -2.6403   11.3267   39.1449 O.3     1  UNL1        0.0000
   2685 O          -4.1980   26.9422   27.9973 O.2     1  UNL1        0.0000
   2686 O          -0.8449   13.6499   39.0625 O.3     1  UNL1        0.0000
   2687 O          -5.8909   24.5477   27.9659 O.3     1  UNL1        0.0000
   2688 O          -0.8779   24.7806   31.7371 O.2     1  UNL1        0.0000
   2689 O          -5.7506   13.5999   35.2561 O.3     1  UNL1        0.0000
   2690 O          -2.6665   22.4633   31.9764 O.3     1  UNL1        0.0000
   2691 O          -4.0443   15.9710   35.1637 O.3     1  UNL1        0.0000
   2692 O           4.0577   21.1493   27.9553 O.3     1  UNL1        0.0000
   2693 O         -10.7793   17.3108   39.0782 O.3     1  UNL1        0.0000
   2694 O           2.2873   18.8043   28.0332 O.3     1  UNL1        0.0000
   2695 O          -8.8656   19.5467   39.1256 O.3     1  UNL1        0.0000
   2696 O          -0.9672   22.8500   29.7187 O.3     1  UNL1        0.0000
   2697 O          -5.7887   15.4847   37.3246 O.3     1  UNL1        0.0000
   2698 O           1.4492   21.2797   26.9041 O.3     1  UNL1        0.0000
   2699 O          -3.3272   24.4975   26.8194 O.3     1  UNL1        0.0000
   2700 H          -5.5803   18.5167   39.2545 H      32  UNL32       0.0000
   2701 H          -4.1230   18.0757   36.9325 H      32  UNL32       0.0000
   2702 C          -4.5527   18.2001   39.1170 C.2    32  UNL32       0.0000
   2703 H          -1.5668   19.1153   36.2577 H      32  UNL32       0.0000
   2704 C          -3.8338   17.9832   37.9702 C.2    32  UNL32       0.0000
   2705 H          -4.3609   19.0597   41.8264 H      32  UNL32       0.0000
   2706 N          -3.7015   17.9234   40.1760 N.pl3  32  UNL32       0.0000
   2707 C          -0.8302   18.5493   36.8423 C.3    32  UNL32       0.0000
   2708 H          -0.4204   19.1906   37.6316 H      32  UNL32       0.0000
   2709 C          -4.0562   18.0322   41.5990 C.3    32  UNL32       0.0000
   2710 N          -2.5581   17.5941   38.3395 N.pl3  32  UNL32       0.0000
   2711 H          -4.8828   17.3478   41.8215 H      32  UNL32       0.0000
   2712 H          -0.0154   18.2692   36.1592 H      32  UNL32       0.0000
   2713 C          -2.5035   17.5531   39.6825 C.3    32  UNL32       0.0000
   2714 C          -1.4413   17.2763   37.4190 C.3    32  UNL32       0.0000
   2715 H          -1.8515   16.6169   36.6450 H      32  UNL32       0.0000
   2716 H          -3.1888   17.7485   42.2029 H      32  UNL32       0.0000
   2717 H          -1.6419   17.2736   40.2753 H      32  UNL32       0.0000
   2718 H          -0.7178   16.6882   37.9960 H      32  UNL32       0.0000
   2719 TI         29.0386    2.3490   11.5235 Ti      1  UNL1        0.0000
   2720 TI         40.1166    5.4118    1.9128 Ti      1  UNL1        0.0000
   2721 TI         33.5835   -0.9658    9.6276 Ti      1  UNL1        0.0000
   2722 TI         35.5244    8.7255    3.8044 Ti      1  UNL1        0.0000
   2723 TI         33.8517    9.6140    1.8373 Ti      1  UNL1        0.0000
   2724 TI         35.0547   -2.1305   11.5968 Ti      1  UNL1        0.0000
   2725 TI         30.4858    1.0487    9.6244 Ti      1  UNL1        0.0000
   2726 TI         38.4007    6.4555    3.7615 Ti      1  UNL1        0.0000
   2727 H          35.6864    1.7170    7.1475 H       1  UNL1        0.0000
   2728 H          32.0008   -3.9529    7.4332 H       1  UNL1        0.0000
   2729 H          37.1503   11.5113    6.0344 H       1  UNL1        0.0000
   2730 H          29.0511    6.3693   11.3553 H       1  UNL1        0.0000
   2731 H          39.9427    1.2817    2.2224 H       1  UNL1        0.0000
   2732 H          25.2857    0.7366   11.1746 H       1  UNL1        0.0000
   2733 H          43.7891    6.8896    2.1016 H       1  UNL1        0.0000
   2734 H          35.2860   -6.2867   11.2923 H       1  UNL1        0.0000
   2735 H          29.9482    8.2301    2.1035 H       1  UNL1        0.0000
   2736 H          36.8257    3.6745    6.0619 H       1  UNL1        0.0000
   2737 H          32.0725    4.0187    7.4479 H       1  UNL1        0.0000
   2738 H          28.3345   -1.7201    7.2442 H       1  UNL1        0.0000
   2739 H          34.7174    8.1903   -0.0835 H       1  UNL1        0.0000
   2740 H          39.0965    6.8759    0.0873 H       1  UNL1        0.0000
   2741 H          32.4581    0.7092   11.1934 H       1  UNL1        0.0000
   2742 H          36.4562    6.9754    2.2085 H       1  UNL1        0.0000
   2743 H          35.6923   -2.3108    6.1491 H       1  UNL1        0.0000
   2744 H          33.3532    9.8774    7.3050 H       1  UNL1        0.0000
   2745 H          26.0099    4.1588    9.1195 H       1  UNL1        0.0000
   2746 H          42.9529    3.4612    4.3936 H       1  UNL1        0.0000
   2747 H          28.4731    2.5097    6.0062 H       1  UNL1        0.0000
   2748 H          30.9234   11.8025    4.3243 H       1  UNL1        0.0000
   2749 H          32.0272    6.2155    6.5342 H       1  UNL1        0.0000
   2750 H          33.4406    6.9796    5.8373 H       1  UNL1        0.0000
   2751 H          33.6870   12.8316    2.6250 H       1  UNL1        0.0000
   2752 H          39.9066   -0.7724    3.4220 H      45  UNL45       0.0000
   2753 H          39.4843   -0.2708   10.0486 H       1  UNL1        0.0000
   2754 H          38.1331   -1.0787   10.8162 H       1  UNL1        0.0000
   2755 H          42.0086    9.0633    6.3961 H       1  UNL1        0.0000
   2756 H          40.6370    8.3317    5.5873 H       1  UNL1        0.0000
   2757 H          40.1361    5.4218    8.6413 H       1  UNL1        0.0000
   2758 H          39.6405    5.6884    6.9780 H       1  UNL1        0.0000
   2759 H          39.0507   -4.8968    9.5952 H       1  UNL1        0.0000
   2760 H          37.7149   -3.9044   10.1562 H       1  UNL1        0.0000
   2761 C          40.7886    4.9103    4.7582 C.2     1  UNL1        0.0000
   2762 C          28.2057    2.7160    8.7045 C.3     1  UNL1        0.0000
   2763 C          35.9501   -2.5492    8.7584 C.2     1  UNL1        0.0000
   2764 C          33.0647   10.1569    4.6723 C.3     1  UNL1        0.0000
   2765 C          41.6212    4.3379    5.8265 C.2     1  UNL1        0.0000
   2766 C          27.3147    3.2918    7.6602 C.ar    1  UNL1        0.0000
   2767 C          36.8005   -3.2053    7.7518 C.2     1  UNL1        0.0000
   2768 C          32.2188   10.7807    5.7287 C.ar    1  UNL1        0.0000
   2769 C          41.3207    4.5273    7.2151 C.3     1  UNL1        0.0000
   2770 C          27.6004    3.0896    6.2926 C.ar    1  UNL1        0.0000
   2771 C          37.8869   -4.0691    8.1126 C.3     1  UNL1        0.0000
   2772 C          31.1399   11.6198    5.3731 C.ar    1  UNL1        0.0000
   2773 C          32.5156   10.5291    7.0640 C.ar    1  UNL1        0.0000
   2774 C          36.5252   -2.9698    6.3847 C.3     1  UNL1        0.0000
   2775 C          42.7594    3.5845    5.4567 C.3     1  UNL1        0.0000
   2776 C          26.2024    4.0264    8.0566 C.ar    1  UNL1        0.0000
   2777 C          35.1089    4.9551    6.1491 C.ar    1  UNL1        0.0000
   2778 C          33.8078    2.7702    7.3445 C.ar    1  UNL1        0.0000
   2779 C          38.8998   10.2727    6.0546 C.2     1  UNL1        0.0000
   2780 C          30.2318   -2.7476    7.3994 C.2     1  UNL1        0.0000
   2781 C          40.0552    1.3640    0.0879 C.2     1  UNL1        0.0000
   2782 C          33.7902   13.7266    0.1310 C.2     1  UNL1        0.0000
   2783 C          43.7419    6.7935   -0.0382 C.2     1  UNL1        0.0000
   2784 C          30.1495    8.2964   -0.0492 C.2     1  UNL1        0.0000
   2785 C          35.8314    6.0344    5.4547 C.3     1  UNL1        0.0000
   2786 C          33.1108    1.6225    7.9972 C.3     1  UNL1        0.0000
   2787 C          38.2268    9.2339    5.2665 C.2     1  UNL1        0.0000
   2788 C          30.8774   -1.6563    8.1807 C.2     1  UNL1        0.0000
   2789 C          40.1088    2.8530    0.0911 C.2     1  UNL1        0.0000
   2790 C          33.7718   12.2588    0.0849 C.2     1  UNL1        0.0000
   2791 C          42.4530    6.0844   -0.0134 C.2     1  UNL1        0.0000
   2792 C          31.4477    9.0319   -0.0126 C.2     1  UNL1        0.0000
   2793 C          33.7391    5.0829    6.5494 C.ar    1  UNL1        0.0000
   2794 C          35.1641    2.6528    6.9717 C.ar    1  UNL1        0.0000
   2795 C          38.1798   11.4460    6.3780 C.3     1  UNL1        0.0000
   2796 C          30.9677   -3.8877    7.0963 C.3     1  UNL1        0.0000
   2797 C          39.9648    0.6973    1.3045 C.3     1  UNL1        0.0000
   2798 C          29.0258    6.9550   12.2712 C.ar    1  UNL1        0.0000
   2799 C          44.3202    7.1712    1.1955 C.3     1  UNL1        0.0000
   2800 C          24.7534    0.4577   12.0823 C.ar    1  UNL1        0.0000
   2801 C          40.2621   10.1392    6.4782 C.3     1  UNL1        0.0000
   2802 C          28.8864   -2.6210    6.9921 C.3     1  UNL1        0.0000
   2803 C          35.7875    3.7362    6.3796 C.ar    1  UNL1        0.0000
   2804 C          33.1144    3.9582    7.1384 C.ar    1  UNL1        0.0000
   2805 C          39.5473   -0.3367   12.1001 C.3     1  UNL1        0.0000
   2806 C          29.5040    7.9421    1.1553 C.2     1  UNL1        0.0000
   2807 C          35.2214   -6.8294   12.2310 C.3     1  UNL1        0.0000
   2808 C          33.7504   14.4519    1.3662 C.2     1  UNL1        0.0000
   2809 N          33.0322    6.2482    6.4177 N.pl3   1  UNL1        0.0000
   2810 N          33.6168   13.8462    2.5831 N.pl3   1  UNL1        0.0000
   2811 N          39.0792   -0.7054   10.8681 N.3     1  UNL1        0.0000
   2812 N          41.0093    9.0179    6.2417 N.3     1  UNL1        0.0000
   2813 N          40.2187    5.1998    7.6577 N.3     1  UNL1        0.0000
   2814 N          38.1990   -4.3859    9.4025 N.3     1  UNL1        0.0000
   2815 O          39.7690    5.6326    5.0831 O.2     1  UNL1        0.0000
   2816 O          29.1516    1.9387    8.3329 O.3     1  UNL1        0.0000
   2817 O          36.2233   -2.7326   10.0094 O.2     1  UNL1        0.0000
   2818 O          32.7337   10.3251    3.4504 O.3     1  UNL1        0.0000
   2819 O          34.0883    9.4767    5.0517 O.3     1  UNL1        0.0000
   2820 O          34.9752   -1.8079    8.3739 O.2     1  UNL1        0.0000
   2821 O          41.1050    4.6803    3.5318 O.2     1  UNL1        0.0000
   2822 O          27.9764    3.0326    9.9274 O.3     1  UNL1        0.0000
   2823 O          38.4336    5.0030    2.7339 O.3     1  UNL1        0.0000
   2824 O          30.6261    2.5928   10.6194 O.3     1  UNL1        0.0000
   2825 O          39.8469    7.0194    2.6670 O.3     1  UNL1        0.0000
   2826 O          29.1375    0.6444   10.8036 O.3     1  UNL1        0.0000
   2827 O          33.5774   -2.5387   10.6264 O.3     1  UNL1        0.0000
   2828 O          35.3798   10.1927    2.7631 O.3     1  UNL1        0.0000
   2829 O          34.8140   -0.4275   10.8795 O.3     1  UNL1        0.0000
   2830 O          34.2230    8.0250    2.6052 O.3     1  UNL1        0.0000
   2831 O          37.0749    5.8463    5.1648 O.3     1  UNL1        0.0000
   2832 O          31.8513    1.7024    8.1845 O.3     1  UNL1        0.0000
   2833 O          38.8558    8.1743    4.9401 O.2     1  UNL1        0.0000
   2834 O          30.1494   -0.6837    8.5683 O.2     1  UNL1        0.0000
   2835 O          35.2351   -4.0240   12.3207 O.2     1  UNL1        0.0000
   2836 O          33.6773   11.5916    1.1731 O.2     1  UNL1        0.0000
   2837 O          37.0305   -1.7008   12.2383 O.2     1  UNL1        0.0000
   2838 O          31.9845    9.1971    1.1417 O.2     1  UNL1        0.0000
   2839 O          36.9975    9.4299    4.9129 O.2     1  UNL1        0.0000
   2840 O          32.1248   -1.7508    8.4319 O.2     1  UNL1        0.0000
   2841 O          35.2088    7.1127    5.1522 O.3     1  UNL1        0.0000
   2842 O          33.8311    0.6204    8.3395 O.3     1  UNL1        0.0000
   2843 O          41.9330    5.7986    1.1311 O.2     1  UNL1        0.0000
   2844 O          27.0961    1.9602   12.2540 O.3     1  UNL1        0.0000
   2845 O          40.1626    3.4536    1.2090 O.2     1  UNL1        0.0000
   2846 O          29.0098    4.1960   12.3014 O.3     1  UNL1        0.0000
   2847 O          36.9081    7.4993    2.8945 O.3     1  UNL1        0.0000
   2848 O          32.0866    0.1341   10.5004 O.3     1  UNL1        0.0000
   2849 O          39.3246    5.9290    0.0799 O.3     1  UNL1        0.0000
   2850 O          34.5482    9.1468   -0.0049 O.3     1  UNL1        0.0000
   2851 H          32.2951    3.1660   12.4303 H      34  UNL34       0.0000
   2852 H          33.7523    2.7251   10.1083 H      34  UNL34       0.0000
   2853 C          33.3226    2.8494   12.2927 C.2    34  UNL34       0.0000
   2854 H          36.3085    3.7647    9.4335 H      34  UNL34       0.0000
   2855 C          34.0416    2.6326   11.1460 C.2    34  UNL34       0.0000
   2856 H          33.5144    3.7090   15.0022 H      34  UNL34       0.0000
   2857 N          34.1738    2.5727   13.3518 N.pl3  34  UNL34       0.0000
   2858 C          37.0451    3.1987   10.0181 C.3    34  UNL34       0.0000
   2859 H          37.4549    3.8399   10.8074 H      34  UNL34       0.0000
   2860 C          33.8192    2.6816   14.7748 C.3    34  UNL34       0.0000
   2861 N          35.3172    2.2435   11.5153 N.pl3  34  UNL34       0.0000
   2862 H          32.9926    1.9971   14.9973 H      34  UNL34       0.0000
   2863 H          37.8600    2.9185    9.3350 H      34  UNL34       0.0000
   2864 C          35.3719    2.2025   12.8583 C.3    34  UNL34       0.0000
   2865 C          36.4340    1.9257   10.5947 C.3    34  UNL34       0.0000
   2866 H          36.0239    1.2662    9.8208 H      34  UNL34       0.0000
   2867 H          34.6865    2.3978   15.3787 H      34  UNL34       0.0000
   2868 H          36.2334    1.9230   13.4511 H      34  UNL34       0.0000
   2869 H          37.1575    1.3375   11.1718 H      34  UNL34       0.0000
   2870 TI         24.3023   -5.1157   24.9356 Ti      1  UNL1        0.0000
   2871 TI         35.3803   -2.0530   15.3249 Ti      1  UNL1        0.0000
   2872 TI         28.8472   -8.4305   23.0397 Ti      1  UNL1        0.0000
   2873 TI         30.7881    1.2608   17.2165 Ti      1  UNL1        0.0000
   2874 TI         29.1155    2.1492   15.2494 Ti      1  UNL1        0.0000
   2875 TI         30.3185   -9.5952   25.0089 Ti      1  UNL1        0.0000
   2876 TI         25.7495   -6.4160   23.0365 Ti      1  UNL1        0.0000
   2877 TI         33.6645   -1.0092   17.1736 Ti      1  UNL1        0.0000
   2878 H          30.9501   -5.7477   20.5596 H       1  UNL1        0.0000
   2879 H          27.2645  -11.4176   20.8453 H       1  UNL1        0.0000
   2880 H          32.4140    4.0466   19.4465 H       1  UNL1        0.0000
   2881 H          24.3148   -1.0954   24.7674 H       1  UNL1        0.0000
   2882 H          35.2064   -6.1830   15.6345 H       1  UNL1        0.0000
   2883 H          20.5494   -6.7282   24.5867 H       1  UNL1        0.0000
   2884 H          39.0528   -0.5752   15.5137 H       1  UNL1        0.0000
   2885 H          30.5498  -13.7514   24.7045 H       1  UNL1        0.0000
   2886 H          25.2119    0.7653   15.5156 H       1  UNL1        0.0000
   2887 H          32.0894   -3.7902   19.4740 H       1  UNL1        0.0000
   2888 H          27.3362   -3.4460   20.8600 H       1  UNL1        0.0000
   2889 H          23.5982   -9.1848   20.6563 H       1  UNL1        0.0000
   2890 H          29.9812    0.7256   13.3287 H       1  UNL1        0.0000
   2891 H          34.3603   -0.5888   13.4994 H       1  UNL1        0.0000
   2892 H          27.7218   -6.7555   24.6055 H       1  UNL1        0.0000
   2893 H          31.7200   -0.4893   15.6206 H       1  UNL1        0.0000
   2894 H          30.9560   -9.7755   19.5612 H       1  UNL1        0.0000
   2895 H          28.6169    2.4127   20.7171 H       1  UNL1        0.0000
   2896 H          21.2737   -3.3059   22.5316 H       1  UNL1        0.0000
   2897 H          38.2166   -4.0035   17.8057 H       1  UNL1        0.0000
   2898 H          23.7369   -4.9550   19.4183 H       1  UNL1        0.0000
   2899 H          26.1872    4.3378   17.7364 H       1  UNL1        0.0000
   2900 H          27.2910   -1.2492   19.9463 H       1  UNL1        0.0000
   2901 H          28.7043   -0.4851   19.2494 H       1  UNL1        0.0000
   2902 H          28.9507    5.3669   16.0371 H       1  UNL1        0.0000
   2903 H          35.1703   -8.2372   16.8341 H      45  UNL45       0.0000
   2904 H          34.7481   -7.7356   23.4607 H       1  UNL1        0.0000
   2905 H          33.3969   -8.5434   24.2283 H       1  UNL1        0.0000
   2906 H          37.2724    1.5985   19.8082 H       1  UNL1        0.0000
   2907 H          35.9007    0.8669   18.9994 H       1  UNL1        0.0000
   2908 H          35.3998   -2.0429   22.0534 H       1  UNL1        0.0000
   2909 H          34.9042   -1.7764   20.3901 H       1  UNL1        0.0000
   2910 H          34.3145  -12.3615   23.0073 H       1  UNL1        0.0000
   2911 H          32.9786  -11.3691   23.5683 H       1  UNL1        0.0000
   2912 C          36.0523   -2.5544   18.1703 C.2     1  UNL1        0.0000
   2913 C          23.4695   -4.7487   22.1166 C.3     1  UNL1        0.0000
   2914 C          31.2138  -10.0139   22.1705 C.2     1  UNL1        0.0000
   2915 C          28.3284    2.6922   18.0844 C.3     1  UNL1        0.0000
   2916 C          36.8849   -3.1268   19.2386 C.2     1  UNL1        0.0000
   2917 C          22.5784   -4.1729   21.0723 C.ar    1  UNL1        0.0000
   2918 C          32.0643  -10.6700   21.1639 C.2     1  UNL1        0.0000
   2919 C          27.4825    3.3160   19.1408 C.ar    1  UNL1        0.0000
   2920 C          36.5844   -2.9374   20.6272 C.3     1  UNL1        0.0000
   2921 C          22.8641   -4.3751   19.7047 C.ar    1  UNL1        0.0000
   2922 C          33.1507  -11.5338   21.5247 C.3     1  UNL1        0.0000
   2923 C          26.4037    4.1550   18.7852 C.ar    1  UNL1        0.0000
   2924 C          27.7793    3.0644   20.4761 C.ar    1  UNL1        0.0000
   2925 C          31.7889  -10.4345   19.7968 C.3     1  UNL1        0.0000
   2926 C          38.0231   -3.8803   18.8688 C.3     1  UNL1        0.0000
   2927 C          21.4662   -3.4383   21.4687 C.ar    1  UNL1        0.0000
   2928 C          30.3726   -2.5096   19.5612 C.ar    1  UNL1        0.0000
   2929 C          29.0715   -4.6945   20.7567 C.ar    1  UNL1        0.0000
   2930 C          34.1636    2.8080   19.4667 C.2     1  UNL1        0.0000
   2931 C          25.4955  -10.2123   20.8116 C.2     1  UNL1        0.0000
   2932 C          35.3189   -6.1007   13.5000 C.2     1  UNL1        0.0000
   2933 C          29.0539    6.2619   13.5431 C.ar    1  UNL1        0.0000
   2934 C          39.0057   -0.6712   13.3739 C.2     1  UNL1        0.0000
   2935 C          25.4132    0.8316   13.3629 C.ar    1  UNL1        0.0000
   2936 C          31.0951   -1.4303   18.8668 C.3     1  UNL1        0.0000
   2937 C          28.3746   -5.8422   21.4093 C.3     1  UNL1        0.0000
   2938 C          33.4905    1.7692   18.6786 C.2     1  UNL1        0.0000
   2939 C          26.1412   -9.1211   21.5928 C.2     1  UNL1        0.0000
   2940 C          35.3725   -4.6118   13.5032 C.2     1  UNL1        0.0000
   2941 C          29.0355    4.7941   13.4970 C.3     1  UNL1        0.0000
   2942 C          37.7167   -1.3803   13.3987 C.2     1  UNL1        0.0000
   2943 C          26.7114    1.5671   13.3995 C.3     1  UNL1        0.0000
   2944 C          29.0028   -2.3818   19.9615 C.ar    1  UNL1        0.0000
   2945 C          30.4279   -4.8119   20.3838 C.ar    1  UNL1        0.0000
   2946 C          33.4435    3.9813   19.7901 C.3     1  UNL1        0.0000
   2947 C          26.2315  -11.3524   20.5084 C.3     1  UNL1        0.0000
   2948 C          35.2286   -6.7675   14.7166 C.3     1  UNL1        0.0000
   2949 C          24.2895   -0.5098   25.6833 C.ar    1  UNL1        0.0000
   2950 C          39.5839   -0.2936   14.6077 C.3     1  UNL1        0.0000
   2951 C          20.0171   -7.0070   25.4944 C.ar    1  UNL1        0.0000
   2952 C          35.5258    2.6745   19.8903 C.3     1  UNL1        0.0000
   2953 C          24.1501  -10.0857   20.4042 C.3     1  UNL1        0.0000
   2954 C          31.0513   -3.7286   19.7917 C.ar    1  UNL1        0.0000
   2955 C          28.3781   -3.5066   20.5505 C.ar    1  UNL1        0.0000
   2956 C          34.8111   -7.8014   25.5122 C.3     1  UNL1        0.0000
   2957 C          24.7677    0.4774   14.5674 C.ar    1  UNL1        0.0000
   2958 C          30.4851  -14.2941   25.6431 C.3     1  UNL1        0.0000
   2959 C          29.0141    6.9872   14.7783 C.ar    1  UNL1        0.0000
   2960 N          28.2959   -1.2165   19.8299 N.pl3   1  UNL1        0.0000
   2961 N          28.8806    6.3815   15.9952 N.pl3   1  UNL1        0.0000
   2962 N          34.3430   -8.1701   24.2802 N.3     1  UNL1        0.0000
   2963 N          36.2730    1.5532   19.6538 N.3     1  UNL1        0.0000
   2964 N          35.4824   -2.2649   21.0699 N.3     1  UNL1        0.0000
   2965 N          33.4627  -11.8506   22.8146 N.3     1  UNL1        0.0000
   2966 O          35.0328   -1.8321   18.4952 O.2     1  UNL1        0.0000
   2967 O          24.4153   -5.5260   21.7450 O.3     1  UNL1        0.0000
   2968 O          31.4871  -10.1973   23.4215 O.2     1  UNL1        0.0000
   2969 O          27.9974    2.8604   16.8625 O.3     1  UNL1        0.0000
   2970 O          29.3521    2.0119   18.4638 O.3     1  UNL1        0.0000
   2971 O          30.2389   -9.2726   21.7860 O.2     1  UNL1        0.0000
   2972 O          36.3687   -2.7845   16.9439 O.2     1  UNL1        0.0000
   2973 O          23.2401   -4.4321   23.3396 O.3     1  UNL1        0.0000
   2974 O          33.6974   -2.4617   16.1460 O.3     1  UNL1        0.0000
   2975 O          25.8898   -4.8719   24.0316 O.3     1  UNL1        0.0000
   2976 O          35.1106   -0.4454   16.0791 O.3     1  UNL1        0.0000
   2977 O          24.4013   -6.8203   24.2157 O.3     1  UNL1        0.0000
   2978 O          28.8411  -10.0035   24.0385 O.3     1  UNL1        0.0000
   2979 O          30.6435    2.7280   16.1752 O.3     1  UNL1        0.0000
   2980 O          30.0777   -7.8922   24.2916 O.3     1  UNL1        0.0000
   2981 O          29.4867    0.5603   16.0173 O.3     1  UNL1        0.0000
   2982 O          32.3387   -1.6184   18.5769 O.3     1  UNL1        0.0000
   2983 O          27.1150   -5.7623   21.5966 O.3     1  UNL1        0.0000
   2984 O          34.1195    0.7096   18.3522 O.2     1  UNL1        0.0000
   2985 O          25.4132   -8.1484   21.9804 O.2     1  UNL1        0.0000
   2986 O          30.4988  -11.4887   25.7328 O.2     1  UNL1        0.0000
   2987 O          28.9411    4.1269   14.5852 O.3     1  UNL1        0.0000
   2988 O          32.2942   -9.1655   25.6504 O.2     1  UNL1        0.0000
   2989 O          27.2482    1.7324   14.5538 O.3     1  UNL1        0.0000
   2990 O          32.2612    1.9652   18.3250 O.2     1  UNL1        0.0000
   2991 O          27.3885   -9.2155   21.8440 O.2     1  UNL1        0.0000
   2992 O          30.4726   -0.3521   18.5643 O.3     1  UNL1        0.0000
   2993 O          29.0948   -6.8443   21.7516 O.3     1  UNL1        0.0000
   2994 O          37.1968   -1.6661   14.5432 O.2     1  UNL1        0.0000
   2995 O          22.3598   -5.5045   25.6661 O.3     1  UNL1        0.0000
   2996 O          35.4264   -4.0111   14.6211 O.2     1  UNL1        0.0000
   2997 O          24.2735   -3.2687   25.7135 O.3     1  UNL1        0.0000
   2998 O          32.1719    0.0346   16.3066 O.3     1  UNL1        0.0000
   2999 O          27.3504   -7.3306   23.9125 O.3     1  UNL1        0.0000
   3000 O          34.5883   -1.5357   13.4920 O.3     1  UNL1        0.0000
   3001 O          29.8119    1.6821   13.4072 O.3     1  UNL1        0.0000
   3002 H          27.5588   -4.2987   25.8424 H      36  UNL36       0.0000
   3003 H          29.0161   -4.7397   23.5204 H      36  UNL36       0.0000
   3004 C          28.5864   -4.6153   25.7048 C.2    36  UNL36       0.0000
   3005 H          31.5723   -3.7001   22.8456 H      36  UNL36       0.0000
   3006 C          29.3053   -4.8322   24.5581 C.2    36  UNL36       0.0000
   3007 H          28.7782   -3.7557   28.4143 H      36  UNL36       0.0000
   3008 N          29.4375   -4.8920   26.7639 N.pl3  36  UNL36       0.0000
   3009 C          32.3089   -4.2660   23.4302 C.3    36  UNL36       0.0000
   3010 H          32.7187   -3.6248   24.2195 H      36  UNL36       0.0000
   3011 C          29.0829   -4.7831   28.1869 C.3    36  UNL36       0.0000
   3012 N          30.5810   -5.2213   24.9274 N.pl3  36  UNL36       0.0000
   3013 H          28.2563   -5.4676   28.4094 H      36  UNL36       0.0000
   3014 H          33.1237   -4.5462   22.7471 H      36  UNL36       0.0000
   3015 C          30.6356   -5.2623   26.2704 C.3    36  UNL36       0.0000
   3016 C          31.6977   -5.5390   24.0069 C.3    36  UNL36       0.0000
   3017 H          31.2876   -6.1985   23.2329 H      36  UNL36       0.0000
   3018 H          29.9503   -5.0669   28.7908 H      36  UNL36       0.0000
   3019 H          31.4972   -5.5417   26.8632 H      36  UNL36       0.0000
   3020 H          32.4213   -6.1272   24.5839 H      36  UNL36       0.0000
   3021 TI         19.5661  -12.5804   38.3477 Ti      1  UNL1        0.0000
   3022 TI         30.6441   -9.5177   28.7370 Ti      1  UNL1        0.0000
   3023 TI         24.1110  -15.8952   36.4518 Ti      1  UNL1        0.0000
   3024 TI         26.0518   -6.2039   30.6286 Ti      1  UNL1        0.0000
   3025 TI         24.3792   -5.3155   28.6615 Ti      1  UNL1        0.0000
   3026 TI         25.5822  -17.0599   38.4211 Ti      1  UNL1        0.0000
   3027 TI         21.0133  -13.8808   36.4486 Ti      1  UNL1        0.0000
   3028 TI         28.9282   -8.4740   30.5857 Ti      1  UNL1        0.0000
   3029 H          26.2139  -13.2124   33.9718 H       1  UNL1        0.0000
   3030 H          22.5283  -18.8823   34.2574 H       1  UNL1        0.0000
   3031 H          27.6777   -3.4181   32.8586 H       1  UNL1        0.0000
   3032 H          19.5785   -8.5602   38.1795 H      18  UNL18       0.0000
   3033 H          30.4702  -13.6478   29.0466 H       1  UNL1        0.0000
   3034 H          15.8131  -14.1929   37.9988 H      12  UNL12       0.0000
   3035 H          34.3166   -8.0399   28.9258 H       1  UNL1        0.0000
   3036 H          25.8135  -21.2161   38.1166 H      20  UNL20       0.0000
   3037 H          20.4756   -6.6994   28.9277 H       1  UNL1        0.0000
   3038 H          27.3532  -11.2549   32.8862 H       1  UNL1        0.0000
   3039 H          22.5999  -10.9107   34.2721 H       1  UNL1        0.0000
   3040 H          18.8619  -16.6496   34.0684 H       1  UNL1        0.0000
   3041 H          25.2449   -6.7391   26.7408 H       1  UNL1        0.0000
   3042 H          29.6240   -8.0535   26.9115 H       1  UNL1        0.0000
   3043 H          22.9855  -14.2202   38.0176 H       1  UNL1        0.0000
   3044 H          26.9837   -7.9540   29.0328 H       1  UNL1        0.0000
   3045 H          26.2198  -17.2403   32.9733 H       1  UNL1        0.0000
   3046 H          23.8807   -5.0521   34.1292 H       1  UNL1        0.0000
   3047 H          16.5374  -10.7706   35.9437 H       1  UNL1        0.0000
   3048 H          33.4804  -11.4683   31.2178 H       1  UNL1        0.0000
   3049 H          19.0006  -12.4197   32.8304 H       1  UNL1        0.0000
   3050 H          21.4509   -3.1270   31.1485 H       1  UNL1        0.0000
   3051 H          22.5547   -8.7140   33.3584 H       1  UNL1        0.0000
   3052 H          23.9681   -7.9498   32.6615 H       1  UNL1        0.0000
   3053 H          24.2144   -2.0978   29.4492 H       1  UNL1        0.0000
   3054 H          30.4340  -15.7019   30.2462 H      45  UNL45       0.0000
   3055 H          30.0118  -15.2003   36.8729 H      19  UNL19       0.0000
   3056 H          28.6606  -16.0081   37.6404 H      19  UNL19       0.0000
   3057 H          32.5361   -5.8662   33.2204 H       1  UNL1        0.0000
   3058 H          31.1645   -6.5978   32.4115 H       1  UNL1        0.0000
   3059 H          30.6635   -9.5076   35.4656 H       1  UNL1        0.0000
   3060 H          30.1679   -9.2411   33.8022 H       1  UNL1        0.0000
   3061 H          29.5782  -19.8263   36.4194 H       1  UNL1        0.0000
   3062 H          28.2424  -18.8339   36.9805 H       1  UNL1        0.0000
   3063 C          31.3161  -10.0191   31.5824 C.2     1  UNL1        0.0000
   3064 C          18.7332  -12.2135   35.5287 C.3     1  UNL1        0.0000
   3065 C          26.4776  -17.4787   35.5826 C.2     1  UNL1        0.0000
   3066 C          23.5922   -4.7725   31.4965 C.3     1  UNL1        0.0000
   3067 C          32.1487  -10.5916   32.6507 C.2     1  UNL1        0.0000
   3068 C          17.8421  -11.6376   34.4844 C.ar    1  UNL1        0.0000
   3069 C          27.3280  -18.1347   34.5760 C.2     1  UNL1        0.0000
   3070 C          22.7463   -4.1487   32.5529 C.ar    1  UNL1        0.0000
   3071 C          31.8482  -10.4022   34.0393 C.3     1  UNL1        0.0000
   3072 C          18.1279  -11.8398   33.1168 C.ar    1  UNL1        0.0000
   3073 C          28.4144  -18.9986   34.9368 C.3     1  UNL1        0.0000
   3074 C          21.6674   -3.3097   32.1974 C.ar    1  UNL1        0.0000
   3075 C          23.0430   -4.4003   33.8882 C.ar    1  UNL1        0.0000
   3076 C          27.0527  -17.8992   33.2089 C.3     1  UNL1        0.0000
   3077 C          33.2868  -11.3450   32.2810 C.3     1  UNL1        0.0000
   3078 C          16.7299  -10.9030   34.8808 C.ar    1  UNL1        0.0000
   3079 C          25.6363   -9.9743   32.9733 C.ar    1  UNL1        0.0000
   3080 C          24.3353  -12.1593   34.1688 C.ar    1  UNL1        0.0000
   3081 C          29.4273   -4.6567   32.8788 C.2     1  UNL1        0.0000
   3082 C          20.7593  -17.6770   34.2237 C.2     1  UNL1        0.0000
   3083 C          30.5826  -13.5655   26.9121 C.2     1  UNL1        0.0000
   3084 C          24.3177   -1.2028   26.9552 C.ar    1  UNL1        0.0000
   3085 C          34.2694   -8.1360   26.7860 C.2     1  UNL1        0.0000
   3086 C          20.6770   -6.6331   26.7750 C.ar    1  UNL1        0.0000
   3087 C          26.3588   -8.8951   32.2790 C.3     1  UNL1        0.0000
   3088 C          23.6383  -13.3069   34.8214 C.3     1  UNL1        0.0000
   3089 C          28.7543   -5.6955   32.0907 C.2     1  UNL1        0.0000
   3090 C          21.4049  -16.5858   35.0049 C.2     1  UNL1        0.0000
   3091 C          30.6363  -12.0765   26.9153 C.2     1  UNL1        0.0000
   3092 C          24.2992   -2.6706   26.9091 C.3     1  UNL1        0.0000
   3093 C          32.9804   -8.8450   26.8108 C.2     1  UNL1        0.0000
   3094 C          21.9752   -5.8976   26.8116 C.3     1  UNL1        0.0000
   3095 C          24.2666   -9.8466   33.3736 C.ar    1  UNL1        0.0000
   3096 C          25.6916  -12.2766   33.7959 C.ar    1  UNL1        0.0000
   3097 C          28.7073   -3.4834   33.2022 C.3     1  UNL1        0.0000
   3098 C          21.4952  -18.8171   33.9205 C.3     1  UNL1        0.0000
   3099 C          30.4923  -14.2322   28.1287 C.3     1  UNL1        0.0000
   3100 C          19.5533   -7.9745   39.0954 C.2    18  UNL18       0.0000
   3101 C          34.8477   -7.7583   28.0198 C.3     1  UNL1        0.0000
   3102 C          15.2808  -14.4717   38.9065 C.2    12  UNL12       0.0000
   3103 C          30.7896   -4.7903   33.3025 C.3     1  UNL1        0.0000
   3104 C          19.4139  -17.5504   33.8163 C.3     1  UNL1        0.0000
   3105 C          26.3150  -11.1933   33.2038 C.ar    1  UNL1        0.0000
   3106 C          23.6418  -10.9713   33.9626 C.ar    1  UNL1        0.0000
   3107 C          30.0748  -15.2661   38.9243 C.3    19  UNL19       0.0000
   3108 C          20.0315   -6.9873   27.9795 C.ar    1  UNL1        0.0000
   3109 C          25.7489  -21.7588   39.0553 C.3    38  UNL38       0.0000
   3110 C          24.2779   -0.4776   28.1904 C.ar    1  UNL1        0.0000
   3111 N          23.5597   -8.6812   33.2420 N.pl3   1  UNL1        0.0000
   3112 N          24.1443   -1.0832   29.4073 N.pl3   1  UNL1        0.0000
   3113 N          29.6067  -15.6348   37.6923 N.3    19  UNL19       0.0000
   3114 N          31.5368   -5.9115   33.0660 N.3     1  UNL1        0.0000
   3115 N          30.7462   -9.7297   34.4820 N.3     1  UNL1        0.0000
   3116 N          28.7265  -19.3153   36.2267 N.3     1  UNL1        0.0000
   3117 O          30.2965   -9.2968   31.9073 O.2     1  UNL1        0.0000
   3118 O          19.6791  -12.9908   35.1571 O.3     1  UNL1        0.0000
   3119 O          26.7508  -17.6620   36.8337 O.2     1  UNL1        0.0000
   3120 O          23.2612   -4.6043   30.2746 O.3     1  UNL1        0.0000
   3121 O          24.6158   -5.4528   31.8759 O.3     1  UNL1        0.0000
   3122 O          25.5027  -16.7374   35.1982 O.2     1  UNL1        0.0000
   3123 O          31.6324  -10.2492   30.3560 O.2     1  UNL1        0.0000
   3124 O          18.5039  -11.8968   36.7517 O.3     1  UNL1        0.0000
   3125 O          28.9611   -9.9264   29.5581 O.3     1  UNL1        0.0000
   3126 O          21.1535  -12.3366   37.4437 O.3     1  UNL1        0.0000
   3127 O          30.3744   -7.9101   29.4912 O.3     1  UNL1        0.0000
   3128 O          19.6650  -14.2850   37.6278 O.3     1  UNL1        0.0000
   3129 O          24.1049  -17.4682   37.4506 O.3     1  UNL1        0.0000
   3130 O          25.9072   -4.7367   29.5873 O.3     1  UNL1        0.0000
   3131 O          25.3414  -15.3570   37.7037 O.3     1  UNL1        0.0000
   3132 O          24.7505   -6.9045   29.4295 O.3     1  UNL1        0.0000
   3133 O          27.6024   -9.0832   31.9890 O.3     1  UNL1        0.0000
   3134 O          22.3788  -13.2271   35.0088 O.3     1  UNL1        0.0000
   3135 O          29.3833   -6.7551   31.7643 O.2     1  UNL1        0.0000
   3136 O          20.6769  -15.6132   35.3926 O.2     1  UNL1        0.0000
   3137 O          25.7626  -18.9534   39.1449 O.3     1  UNL1        0.0000
   3138 O          24.2048   -3.3379   27.9973 O.3     1  UNL1        0.0000
   3139 O          27.5580  -16.6302   39.0625 O.3     1  UNL1        0.0000
   3140 O          22.5120   -5.7324   27.9659 O.3     1  UNL1        0.0000
   3141 O          27.5250   -5.4995   31.7371 O.2     1  UNL1        0.0000
   3142 O          22.6522  -16.6802   35.2561 O.2     1  UNL1        0.0000
   3143 O          25.7363   -7.8168   31.9764 O.3     1  UNL1        0.0000
   3144 O          24.3586  -14.3090   35.1637 O.3     1  UNL1        0.0000
   3145 O          32.4605   -9.1308   27.9553 O.2     1  UNL1        0.0000
   3146 O          17.6235  -12.9693   39.0782 O.3     1  UNL1        0.0000
   3147 O          30.6901  -11.4758   28.0332 O.2     1  UNL1        0.0000
   3148 O          19.5372  -10.7334   39.1256 O.3     1  UNL1        0.0000
   3149 O          27.4356   -7.4301   29.7187 O.3     1  UNL1        0.0000
   3150 O          22.6141  -14.7954   37.3246 O.3     1  UNL1        0.0000
   3151 O          29.8521   -9.0004   26.9041 O.3     1  UNL1        0.0000
   3152 O          25.0756   -5.7826   26.8194 O.3     1  UNL1        0.0000
   3153 H          22.8225  -11.7634   39.2545 H      39  UNL39       0.0000
   3154 H          24.2798  -12.2044   36.9325 H      39  UNL39       0.0000
   3155 C          23.8501  -12.0800   39.1170 C.2    39  UNL39       0.0000
   3156 H          26.8360  -11.1648   36.2577 H      39  UNL39       0.0000
   3157 C          24.5690  -12.2969   37.9702 C.2    39  UNL39       0.0000
   3158 H          24.0419  -11.2204   41.8264 H      39  UNL39       0.0000
   3159 N          24.7013  -12.3567   40.1760 N.pl3  39  UNL39       0.0000
   3160 C          27.5726  -11.7308   36.8423 C.3    39  UNL39       0.0000
   3161 H          27.9824  -11.0895   37.6316 H      39  UNL39       0.0000
   3162 C          24.3467  -12.2479   41.5990 C.3    39  UNL39       0.0000
   3163 N          25.8447  -12.6860   38.3395 N.pl3  39  UNL39       0.0000
   3164 H          23.5200  -12.9323   41.8215 H      39  UNL39       0.0000
   3165 H          28.3875  -12.0109   36.1592 H      39  UNL39       0.0000
   3166 C          25.8993  -12.7270   39.6825 C.3    39  UNL39       0.0000
   3167 C          26.9615  -13.0038   37.4190 C.3    39  UNL39       0.0000
   3168 H          26.5514  -13.6632   36.6450 H      39  UNL39       0.0000
   3169 H          25.2140  -12.5316   42.2029 H      39  UNL39       0.0000
   3170 H          26.7609  -13.0064   40.2753 H      39  UNL39       0.0000
   3171 H          27.6850  -13.5919   37.9960 H      39  UNL39       0.0000
   3172 TI         22.8393   17.4891   11.5235 Ti      1  UNL1        0.0000
   3173 TI         33.9173   20.5518    1.9128 Ti      1  UNL1        0.0000
   3174 TI         27.3842   14.1743    9.6276 Ti      1  UNL1        0.0000
   3175 TI         29.3251   23.8656    3.8044 Ti      1  UNL1        0.0000
   3176 TI         27.6525   24.7540    1.8373 Ti      1  UNL1        0.0000
   3177 TI         28.8554   13.0096   11.5968 Ti      1  UNL1        0.0000
   3178 TI         24.2865   16.1887    9.6244 Ti      1  UNL1        0.0000
   3179 TI         32.2015   21.5955    3.7615 Ti      1  UNL1        0.0000
   3180 H          29.4871   16.8571    7.1475 H       1  UNL1        0.0000
   3181 H          25.8015   11.1872    7.4332 H       1  UNL1        0.0000
   3182 H          30.9510   26.6514    6.0344 H       1  UNL1        0.0000
   3183 H          22.8518   21.5093   11.3553 H       1  UNL1        0.0000
   3184 H          33.7434   16.4217    2.2224 H       1  UNL1        0.0000
   3185 H          19.0864   15.8766   11.1746 H       1  UNL1        0.0000
   3186 H          37.5898   22.0296    2.1016 H       1  UNL1        0.0000
   3187 H          29.0868    8.8534   11.2923 H       1  UNL1        0.0000
   3188 H          23.7489   23.3701    2.1035 H       1  UNL1        0.0000
   3189 H          30.6264   18.8146    6.0619 H       1  UNL1        0.0000
   3190 H          25.8732   19.1588    7.4479 H       1  UNL1        0.0000
   3191 H          22.1352   13.4199    7.2442 H       1  UNL1        0.0000
   3192 H          28.5181   23.3304   -0.0835 H       1  UNL1        0.0000
   3193 H          32.8972   22.0160    0.0873 H       1  UNL1        0.0000
   3194 H          26.2588   15.8493   11.1934 H       1  UNL1        0.0000
   3195 H          30.2569   22.1155    2.2085 H       1  UNL1        0.0000
   3196 H          29.4930   12.8292    6.1491 H       1  UNL1        0.0000
   3197 H          27.1539   25.0174    7.3050 H       1  UNL1        0.0000
   3198 H          19.8107   19.2989    9.1195 H       1  UNL1        0.0000
   3199 H          36.7536   18.6012    4.3936 H       1  UNL1        0.0000
   3200 H          22.2738   17.6498    6.0062 H       1  UNL1        0.0000
   3201 H          24.7241   26.9425    4.3243 H       1  UNL1        0.0000
   3202 H          25.8279   21.3555    6.5342 H       1  UNL1        0.0000
   3203 H          27.2413   22.1197    5.8373 H       1  UNL1        0.0000
   3204 H          27.4877   27.9717    2.6250 H       1  UNL1        0.0000
   3205 H          33.7073   14.3676    3.4220 H       1  UNL1        0.0000
   3206 H          33.2851   14.8692   10.0486 H       1  UNL1        0.0000
   3207 H          31.9338   14.0614   10.8162 H       1  UNL1        0.0000
   3208 H          35.8093   24.2033    6.3961 H       1  UNL1        0.0000
   3209 H          34.4377   23.4717    5.5873 H       1  UNL1        0.0000
   3210 H          33.9368   20.5619    8.6413 H       1  UNL1        0.0000
   3211 H          33.4412   20.8284    6.9780 H       1  UNL1        0.0000
   3212 H          32.8514   10.2432    9.5952 H       1  UNL1        0.0000
   3213 H          31.5156   11.2356   10.1562 H       1  UNL1        0.0000
   3214 C          34.5893   20.0504    4.7582 C.2     1  UNL1        0.0000
   3215 C          22.0064   17.8560    8.7045 C.3     1  UNL1        0.0000
   3216 C          29.7508   12.5908    8.7584 C.3     1  UNL1        0.0000
   3217 C          26.8654   25.2970    4.6723 C.3     1  UNL1        0.0000
   3218 C          35.4219   19.4779    5.8265 C.2     1  UNL1        0.0000
   3219 C          21.1154   18.4319    7.6602 C.ar    1  UNL1        0.0000
   3220 C          30.6013   11.9348    7.7518 C.ar    1  UNL1        0.0000
   3221 C          26.0195   25.9208    5.7287 C.ar    1  UNL1        0.0000
   3222 C          35.1214   19.6673    7.2151 C.3     1  UNL1        0.0000
   3223 C          21.4011   18.2297    6.2926 C.ar    1  UNL1        0.0000
   3224 C          31.6876   11.0709    8.1126 C.ar    1  UNL1        0.0000
   3225 C          24.9406   26.7598    5.3731 C.ar    1  UNL1        0.0000
   3226 C          26.3163   25.6692    7.0640 C.ar    1  UNL1        0.0000
   3227 C          30.3259   12.1703    6.3847 C.ar    1  UNL1        0.0000
   3228 C          36.5601   18.7245    5.4567 C.3     1  UNL1        0.0000
   3229 C          20.0031   19.1665    8.0566 C.ar    1  UNL1        0.0000
   3230 C          28.9096   20.0952    6.1491 C.ar    1  UNL1        0.0000
   3231 C          27.6085   17.9102    7.3445 C.ar    1  UNL1        0.0000
   3232 C          32.7005   25.4128    6.0546 C.2     1  UNL1        0.0000
   3233 C          24.0325   12.3925    7.3994 C.ar    1  UNL1        0.0000
   3234 C          33.8559   16.5040    0.0879 C.2     1  UNL1        0.0000
   3235 C          27.5909   28.8667    0.1310 C.2     1  UNL1        0.0000
   3236 C          37.5427   21.9335   -0.0382 C.2     1  UNL1        0.0000
   3237 C          23.9502   23.4364   -0.0492 C.2     1  UNL1        0.0000
   3238 C          29.6321   21.1744    5.4547 C.3     1  UNL1        0.0000
   3239 C          26.9115   16.7626    7.9972 C.3     1  UNL1        0.0000
   3240 C          32.0275   24.3740    5.2665 C.2     1  UNL1        0.0000
   3241 C          24.6781   13.4837    8.1807 C.3     1  UNL1        0.0000
   3242 C          33.9095   17.9930    0.0911 C.2     1  UNL1        0.0000
   3243 C          27.5725   27.3989    0.0849 C.2     1  UNL1        0.0000
   3244 C          36.2537   21.2245   -0.0134 C.2     1  UNL1        0.0000
   3245 C          25.2484   24.1719   -0.0126 C.2     1  UNL1        0.0000
   3246 C          27.5398   20.2229    6.5494 C.ar    1  UNL1        0.0000
   3247 C          28.9648   17.7929    6.9717 C.ar    1  UNL1        0.0000
   3248 C          31.9805   26.5861    6.3780 C.3     1  UNL1        0.0000
   3249 C          24.7684   11.2524    7.0963 C.ar    1  UNL1        0.0000
   3250 C          33.7656   15.8373    1.3045 C.2     1  UNL1        0.0000
   3251 C          22.8265   22.0950   12.2712 C.ar    1  UNL1        0.0000
   3252 C          38.1209   22.3112    1.1955 C.3     1  UNL1        0.0000
   3253 C          18.5541   15.5978   12.0823 C.ar    1  UNL1        0.0000
   3254 C          34.0628   25.2792    6.4782 C.3     1  UNL1        0.0000
   3255 C          22.6871   12.5191    6.9921 C.ar    1  UNL1        0.0000
   3256 C          29.5882   18.8762    6.3796 C.ar    1  UNL1        0.0000
   3257 C          26.9151   19.0982    7.1384 C.ar    1  UNL1        0.0000
   3258 C          33.3481   14.8034   12.1001 C.3     1  UNL1        0.0000
   3259 C          23.3047   23.0822    1.1553 C.2     1  UNL1        0.0000
   3260 C          29.0221    8.3107   12.2310 C.ar    1  UNL1        0.0000
   3261 C          27.5511   29.5919    1.3662 C.2     1  UNL1        0.0000
   3262 N          26.8329   21.3883    6.4177 N.pl3   1  UNL1        0.0000
   3263 N          27.4175   28.9863    2.5831 N.pl3   1  UNL1        0.0000
   3264 N          32.8799   14.4347   10.8681 N.3     1  UNL1        0.0000
   3265 N          34.8100   24.1580    6.2417 N.3     1  UNL1        0.0000
   3266 N          34.0194   20.3398    7.6577 N.3     1  UNL1        0.0000
   3267 N          31.9997   10.7542    9.4025 N.pl3   1  UNL1        0.0000
   3268 O          33.5697   20.7727    5.0831 O.2     1  UNL1        0.0000
   3269 O          22.9523   17.0787    8.3329 O.3     1  UNL1        0.0000
   3270 O          30.0241   12.4075   10.0094 O.3     1  UNL1        0.0000
   3271 O          26.5344   25.4652    3.4504 O.3     1  UNL1        0.0000
   3272 O          27.8891   24.6167    5.0517 O.3     1  UNL1        0.0000
   3273 O          28.7759   13.3321    8.3739 O.3     1  UNL1        0.0000
   3274 O          34.9057   19.8203    3.5318 O.2     1  UNL1        0.0000
   3275 O          21.7771   18.1726    9.9274 O.3     1  UNL1        0.0000
   3276 O          32.2344   20.1431    2.7339 O.3     1  UNL1        0.0000
   3277 O          24.4268   17.7329   10.6194 O.3     1  UNL1        0.0000
   3278 O          33.6476   22.1594    2.6670 O.3     1  UNL1        0.0000
   3279 O          22.9383   15.7845   10.8036 O.3     1  UNL1        0.0000
   3280 O          27.3781   12.6013   10.6264 O.3     1  UNL1        0.0000
   3281 O          29.1805   25.3328    2.7631 O.3     1  UNL1        0.0000
   3282 O          28.6147   14.7125   10.8795 O.3     1  UNL1        0.0000
   3283 O          28.0237   23.1650    2.6052 O.3     1  UNL1        0.0000
   3284 O          30.8757   20.9863    5.1648 O.3     1  UNL1        0.0000
   3285 O          25.6520   16.8424    8.1845 O.3     1  UNL1        0.0000
   3286 O          32.6565   23.3144    4.9401 O.2     1  UNL1        0.0000
   3287 O          23.9501   14.4563    8.5683 O.3     1  UNL1        0.0000
   3288 O          29.0358   11.1161   12.3207 O.3     1  UNL1        0.0000
   3289 O          27.4780   26.7316    1.1731 O.2     1  UNL1        0.0000
   3290 O          30.8312   13.4393   12.2383 O.2     1  UNL1        0.0000
   3291 O          25.7852   24.3371    1.1417 O.2     1  UNL1        0.0000
   3292 O          30.7982   24.5700    4.9129 O.2     1  UNL1        0.0000
   3293 O          25.9255   13.3893    8.4319 O.3     1  UNL1        0.0000
   3294 O          29.0095   22.2527    5.1522 O.3     1  UNL1        0.0000
   3295 O          27.6318   15.7604    8.3395 O.3     1  UNL1        0.0000
   3296 O          35.7337   20.9387    1.1311 O.2     1  UNL1        0.0000
   3297 O          20.8968   17.1002   12.2540 O.3     1  UNL1        0.0000
   3298 O          33.9634   18.5937    1.2090 O.2     1  UNL1        0.0000
   3299 O          22.8105   19.3361   12.3014 O.3     1  UNL1        0.0000
   3300 O          30.7088   22.6394    2.8945 O.3     1  UNL1        0.0000
   3301 O          25.8873   15.2741   10.5004 O.3     1  UNL1        0.0000
   3302 O          33.1253   21.0691    0.0799 O.3     1  UNL1        0.0000
   3303 O          28.3489   24.2869   -0.0049 O.3     1  UNL1        0.0000
   3304 H          26.0958   18.3061   12.4303 H      40  UNL40       0.0000
   3305 H          27.5530   17.8651   10.1083 H      40  UNL40       0.0000
   3306 C          27.1233   17.9895   12.2927 C.2    40  UNL40       0.0000
   3307 H          30.1092   18.9047    9.4335 H      40  UNL40       0.0000
   3308 C          27.8423   17.7726   11.1460 C.2    40  UNL40       0.0000
   3309 H          27.3151   18.8491   15.0022 H      40  UNL40       0.0000
   3310 N          27.9745   17.7128   13.3518 N.pl3  40  UNL40       0.0000
   3311 C          30.8458   18.3387   10.0181 C.3    40  UNL40       0.0000
   3312 H          31.2556   18.9800   10.8074 H      40  UNL40       0.0000
   3313 C          27.6199   17.8216   14.7748 C.3    40  UNL40       0.0000
   3314 N          29.1179   17.3835   11.5153 N.pl3  40  UNL40       0.0000
   3315 H          26.7933   17.1372   14.9973 H      40  UNL40       0.0000
   3316 H          31.6607   18.0586    9.3350 H      40  UNL40       0.0000
   3317 C          29.1726   17.3425   12.8583 C.3    40  UNL40       0.0000
   3318 C          30.2347   17.0657   10.5947 C.3    40  UNL40       0.0000
   3319 H          29.8246   16.4063    9.8208 H      40  UNL40       0.0000
   3320 H          28.4872   17.5379   15.3787 H      40  UNL40       0.0000
   3321 H          30.0342   17.0630   13.4511 H      40  UNL40       0.0000
   3322 H          30.9582   16.4776   11.1718 H      40  UNL40       0.0000
   3323 TI         18.1031   10.0243   24.9356 Ti      1  UNL1        0.0000
   3324 TI         29.1810   13.0871   15.3249 Ti      1  UNL1        0.0000
   3325 TI         22.6479    6.7096   23.0397 Ti      1  UNL1        0.0000
   3326 TI         24.5888   16.4008   17.2165 Ti      1  UNL1        0.0000
   3327 TI         22.9162   17.2893   15.2494 Ti      1  UNL1        0.0000
   3328 TI         24.1192    5.5449   25.0089 Ti      1  UNL1        0.0000
   3329 TI         19.5503    8.7240   23.0365 Ti      1  UNL1        0.0000
   3330 TI         27.4652   14.1308   17.1736 Ti      1  UNL1        0.0000
   3331 H          24.7508    9.3923   20.5596 H       1  UNL1        0.0000
   3332 H          21.0653    3.7225   20.8453 H       1  UNL1        0.0000
   3333 H          26.2147   19.1867   19.4465 H       1  UNL1        0.0000
   3334 H          18.1155   14.0446   24.7674 H       1  UNL1        0.0000
   3335 H          29.0071    8.9570   15.6345 H       1  UNL1        0.0000
   3336 H          14.3501    8.4119   24.5867 H       1  UNL1        0.0000
   3337 H          32.8535   14.5649   15.5137 H       1  UNL1        0.0000
   3338 H          24.3505    1.3886   24.7045 H       1  UNL1        0.0000
   3339 H          19.0126   15.9054   15.5156 H       1  UNL1        0.0000
   3340 H          25.8901   11.3499   19.4740 H       1  UNL1        0.0000
   3341 H          21.1369   11.6940   20.8600 H       1  UNL1        0.0000
   3342 H          17.3989    5.9552   20.6563 H       1  UNL1        0.0000
   3343 H          23.7819   15.8656   13.3287 H       1  UNL1        0.0000
   3344 H          28.1610   14.5513   13.4994 H       1  UNL1        0.0000
   3345 H          21.5225    8.3845   24.6055 H       1  UNL1        0.0000
   3346 H          25.5207   14.6507   15.6206 H       1  UNL1        0.0000
   3347 H          24.7567    5.3645   19.5612 H       1  UNL1        0.0000
   3348 H          22.4177   17.5527   20.7171 H       1  UNL1        0.0000
   3349 H          15.0744   11.8342   22.5316 H       1  UNL1        0.0000
   3350 H          32.0173   11.1365   17.8057 H       1  UNL1        0.0000
   3351 H          17.5376   10.1850   19.4183 H       1  UNL1        0.0000
   3352 H          19.9879   19.4778   17.7364 H       1  UNL1        0.0000
   3353 H          21.0917   13.8908   19.9463 H       1  UNL1        0.0000
   3354 H          22.5050   14.6549   19.2494 H       1  UNL1        0.0000
   3355 H          22.7514   20.5069   16.0371 H       1  UNL1        0.0000
   3356 H          28.9710    6.9029   16.8341 H       1  UNL1        0.0000
   3357 H          28.5488    7.4045   23.4607 H       1  UNL1        0.0000
   3358 H          27.1976    6.5967   24.2283 H       1  UNL1        0.0000
   3359 H          31.0731   16.7386   19.8082 H       1  UNL1        0.0000
   3360 H          29.7014   16.0070   18.9994 H       1  UNL1        0.0000
   3361 H          29.2005   13.0971   22.0534 H       1  UNL1        0.0000
   3362 H          28.7049   13.3637   20.3901 H       1  UNL1        0.0000
   3363 H          28.1152    2.7785   23.0073 H       1  UNL1        0.0000
   3364 H          26.7793    3.7709   23.5683 H       1  UNL1        0.0000
   3365 C          29.8530   12.5857   18.1703 C.2     1  UNL1        0.0000
   3366 C          17.2702   10.3913   22.1166 C.3     1  UNL1        0.0000
   3367 C          25.0145    5.1261   22.1705 C.3     1  UNL1        0.0000
   3368 C          22.1291   17.8323   18.0844 C.3     1  UNL1        0.0000
   3369 C          30.6856   12.0132   19.2386 C.2     1  UNL1        0.0000
   3370 C          16.3791   10.9671   21.0723 C.ar    1  UNL1        0.0000
   3371 C          25.8650    4.4701   21.1639 C.ar    1  UNL1        0.0000
   3372 C          21.2833   18.4560   19.1408 C.ar    1  UNL1        0.0000
   3373 C          30.3851   12.2026   20.6272 C.3     1  UNL1        0.0000
   3374 C          16.6649   10.7649   19.7047 C.ar    1  UNL1        0.0000
   3375 C          26.9514    3.6062   21.5247 C.ar    1  UNL1        0.0000
   3376 C          20.2044   19.2951   18.7852 C.ar    1  UNL1        0.0000
   3377 C          21.5800   18.2045   20.4761 C.ar    1  UNL1        0.0000
   3378 C          25.5896    4.7055   19.7968 C.ar    1  UNL1        0.0000
   3379 C          31.8238   11.2598   18.8688 C.3     1  UNL1        0.0000
   3380 C          15.2669   11.7018   21.4687 C.ar    1  UNL1        0.0000
   3381 C          24.1733   12.6304   19.5612 C.ar    1  UNL1        0.0000
   3382 C          22.8722   10.4455   20.7567 C.ar    1  UNL1        0.0000
   3383 C          27.9643   17.9481   19.4667 C.2     1  UNL1        0.0000
   3384 C          19.2963    4.9278   20.8116 C.ar    1  UNL1        0.0000
   3385 C          29.1196    9.0393   13.5000 C.ar    1  UNL1        0.0000
   3386 C          22.8546   21.4019   13.5431 C.ar    1  UNL1        0.0000
   3387 C          32.8064   14.4688   13.3739 C.2     1  UNL1        0.0000
   3388 C          19.2139   15.9717   13.3629 C.ar    1  UNL1        0.0000
   3389 C          24.8958   13.7097   18.8668 C.3     1  UNL1        0.0000
   3390 C          22.1753    9.2978   21.4093 C.3     1  UNL1        0.0000
   3391 C          27.2913   16.9092   18.6786 C.2     1  UNL1        0.0000
   3392 C          19.9419    6.0190   21.5928 C.3     1  UNL1        0.0000
   3393 C          29.1732   10.5283   13.5032 C.3     1  UNL1        0.0000
   3394 C          22.8362   19.9341   13.4970 C.3     1  UNL1        0.0000
   3395 C          31.5174   13.7597   13.3987 C.2     1  UNL1        0.0000
   3396 C          20.5122   16.7072   13.3995 C.3     1  UNL1        0.0000
   3397 C          22.8035   12.7582   19.9615 C.ar    1  UNL1        0.0000
   3398 C          24.2286   10.3281   20.3838 C.ar    1  UNL1        0.0000
   3399 C          27.2443   19.1213   19.7901 C.3     1  UNL1        0.0000
   3400 C          20.0322    3.7876   20.5084 C.ar    1  UNL1        0.0000
   3401 C          29.0293    8.3726   14.7166 C.ar    1  UNL1        0.0000
   3402 C          18.0902   14.6303   25.6833 C.ar    1  UNL1        0.0000
   3403 C          33.3846   14.8465   14.6077 C.3     1  UNL1        0.0000
   3404 C          13.8178    8.1330   25.4944 C.ar    1  UNL1        0.0000
   3405 C          29.3266   17.8145   19.8903 C.3     1  UNL1        0.0000
   3406 C          17.9508    5.0544   20.4042 C.ar    1  UNL1        0.0000
   3407 C          24.8520   11.4115   19.7917 C.ar    1  UNL1        0.0000
   3408 C          22.1788   11.6335   20.5505 C.ar    1  UNL1        0.0000
   3409 C          28.6118    7.3387   25.5122 C.3     1  UNL1        0.0000
   3410 C          18.5684   15.6175   14.5674 C.ar    1  UNL1        0.0000
   3411 C          24.2858    0.8459   25.6431 C.ar    1  UNL1        0.0000
   3412 C          22.8148   22.1272   14.7783 C.ar    1  UNL1        0.0000
   3413 N          22.0966   13.9236   19.8299 N.pl3   1  UNL1        0.0000
   3414 N          22.6813   21.5216   15.9952 N.pl3   1  UNL1        0.0000
   3415 N          28.1437    6.9699   24.2802 N.3     1  UNL1        0.0000
   3416 N          30.0737   16.6933   19.6538 N.3     1  UNL1        0.0000
   3417 N          29.2831   12.8751   21.0699 N.3     1  UNL1        0.0000
   3418 N          27.2634    3.2895   22.8146 N.pl3   1  UNL1        0.0000
   3419 O          28.8335   13.3080   18.4952 O.2     1  UNL1        0.0000
   3420 O          18.2160    9.6140   21.7450 O.3     1  UNL1        0.0000
   3421 O          25.2878    4.9428   23.4215 O.3     1  UNL1        0.0000
   3422 O          21.7981   18.0004   16.8625 O.3     1  UNL1        0.0000
   3423 O          23.1528   17.1520   18.4638 O.3     1  UNL1        0.0000
   3424 O          24.0396    5.8674   21.7860 O.3     1  UNL1        0.0000
   3425 O          30.1694   12.3556   16.9439 O.2     1  UNL1        0.0000
   3426 O          17.0409   10.7079   23.3396 O.3     1  UNL1        0.0000
   3427 O          27.4981   12.6784   16.1460 O.3     1  UNL1        0.0000
   3428 O          19.6905   10.2681   24.0316 O.3     1  UNL1        0.0000
   3429 O          28.9114   14.6947   16.0791 O.3     1  UNL1        0.0000
   3430 O          18.2020    8.3198   24.2157 O.3     1  UNL1        0.0000
   3431 O          22.6418    5.1366   24.0385 O.3     1  UNL1        0.0000
   3432 O          24.4442   17.8681   16.1752 O.3     1  UNL1        0.0000
   3433 O          23.8784    7.2478   24.2916 O.3     1  UNL1        0.0000
   3434 O          23.2874   15.7003   16.0173 O.3     1  UNL1        0.0000
   3435 O          26.1394   13.5216   18.5769 O.3     1  UNL1        0.0000
   3436 O          20.9158    9.3777   21.5966 O.3     1  UNL1        0.0000
   3437 O          27.9203   15.8497   18.3522 O.2     1  UNL1        0.0000
   3438 O          19.2139    6.9916   21.9804 O.3     1  UNL1        0.0000
   3439 O          24.2995    3.6513   25.7328 O.3     1  UNL1        0.0000
   3440 O          22.7418   19.2669   14.5852 O.3     1  UNL1        0.0000
   3441 O          26.0949    5.9745   25.6504 O.2     1  UNL1        0.0000
   3442 O          21.0489   16.8724   14.5538 O.3     1  UNL1        0.0000
   3443 O          26.0619   17.1053   18.3250 O.2     1  UNL1        0.0000
   3444 O          21.1892    5.9245   21.8440 O.3     1  UNL1        0.0000
   3445 O          24.2733   14.7880   18.5643 O.3     1  UNL1        0.0000
   3446 O          22.8955    8.2957   21.7516 O.3     1  UNL1        0.0000
   3447 O          30.9975   13.4740   14.5432 O.2     1  UNL1        0.0000
   3448 O          16.1605    9.6355   25.6661 O.3     1  UNL1        0.0000
   3449 O          29.2271   11.1290   14.6211 O.3     1  UNL1        0.0000
   3450 O          18.0742   11.8714   25.7135 O.3     1  UNL1        0.0000
   3451 O          25.9726   15.1747   16.3066 O.3     1  UNL1        0.0000
   3452 O          21.1511    7.8094   23.9125 O.3     1  UNL1        0.0000
   3453 O          28.3890   13.6043   13.4920 O.3     1  UNL1        0.0000
   3454 O          23.6126   16.8221   13.4072 O.3     1  UNL1        0.0000
   3455 H          21.3595   10.8413   25.8424 H      41  UNL41       0.0000
   3456 H          22.8168   10.4004   23.5204 H      41  UNL41       0.0000
   3457 C          22.3871   10.5247   25.7048 C.2    41  UNL41       0.0000
   3458 H          25.3730   11.4400   22.8456 H      41  UNL41       0.0000
   3459 C          23.1060   10.3079   24.5581 C.2    41  UNL41       0.0000
   3460 H          22.5789   11.3844   28.4143 H      41  UNL41       0.0000
   3461 N          23.2383   10.2480   26.7639 N.pl3  41  UNL41       0.0000
   3462 C          26.1096   10.8740   23.4302 C.3    41  UNL41       0.0000
   3463 H          26.5194   11.5153   24.2195 H      41  UNL41       0.0000
   3464 C          22.8836   10.3569   28.1869 C.3    41  UNL41       0.0000
   3465 N          24.3817    9.9188   24.9274 N.pl3  41  UNL41       0.0000
   3466 H          22.0570    9.6725   28.4094 H      41  UNL41       0.0000
   3467 H          26.9244   10.5938   22.7471 H      41  UNL41       0.0000
   3468 C          24.4363    9.8778   26.2704 C.3    41  UNL41       0.0000
   3469 C          25.4985    9.6010   24.0069 C.3    41  UNL41       0.0000
   3470 H          25.0883    8.9416   23.2329 H      41  UNL41       0.0000
   3471 H          23.7510   10.0731   28.7908 H      41  UNL41       0.0000
   3472 H          25.2979    9.5983   26.8632 H      41  UNL41       0.0000
   3473 H          26.2220    9.0128   24.5839 H      41  UNL41       0.0000
   3474 TI         13.3668    2.5596   38.3477 Ti      1  UNL1        0.0000
   3475 TI         24.4448    5.6224   28.7370 Ti      1  UNL1        0.0000
   3476 TI         17.9117   -0.7552   36.4518 Ti      1  UNL1        0.0000
   3477 TI         19.8526    8.9361   30.6286 Ti      1  UNL1        0.0000
   3478 TI         18.1799    9.8246   28.6615 Ti      1  UNL1        0.0000
   3479 TI         19.3829   -1.9199   38.4211 Ti      1  UNL1        0.0000
   3480 TI         14.8140    1.2593   36.4486 Ti      1  UNL1        0.0000
   3481 TI         22.7289    6.6661   30.5857 Ti      1  UNL1        0.0000
   3482 H          20.0146    1.9276   33.9718 H       1  UNL1        0.0000
   3483 H          16.3290   -3.7423   34.2574 H       1  UNL1        0.0000
   3484 H          21.4785   11.7219   32.8586 H       1  UNL1        0.0000
   3485 H          13.3793    6.5799   38.1795 H      21  UNL21       0.0000
   3486 H          24.2709    1.4923   29.0466 H       1  UNL1        0.0000
   3487 H           9.6139    0.9472   37.9988 H      15  UNL15       0.0000
   3488 H          28.1173    7.1002   28.9258 H       1  UNL1        0.0000
   3489 H          19.6142   -6.0761   38.1166 H      18  UNL18       0.0000
   3490 H          14.2764    8.4407   28.9277 H       1  UNL1        0.0000
   3491 H          21.1539    3.8851   32.8862 H       1  UNL1        0.0000
   3492 H          16.4007    4.2293   34.2721 H       1  UNL1        0.0000
   3493 H          12.6626   -1.5095   34.0684 H       1  UNL1        0.0000
   3494 H          19.0456    8.4009   26.7408 H       1  UNL1        0.0000
   3495 H          23.4247    7.0865   26.9115 H       1  UNL1        0.0000
   3496 H          16.7862    0.9198   38.0176 H       1  UNL1        0.0000
   3497 H          20.7844    7.1860   29.0328 H       1  UNL1        0.0000
   3498 H          20.0205   -2.1002   32.9733 H       1  UNL1        0.0000
   3499 H          17.6814   10.0880   34.1292 H       1  UNL1        0.0000
   3500 H          10.3381    4.3694   35.9437 H       1  UNL1        0.0000
   3501 H          27.2811    3.6718   31.2178 H       1  UNL1        0.0000
   3502 H          12.8013    2.7203   32.8304 H       1  UNL1        0.0000
   3503 H          15.2516   12.0131   31.1485 H       1  UNL1        0.0000
   3504 H          16.3554    6.4261   33.3584 H       1  UNL1        0.0000
   3505 H          17.7688    7.1902   32.6615 H       1  UNL1        0.0000
   3506 H          18.0152   13.0422   29.4492 H       1  UNL1        0.0000
   3507 H          24.2348   -0.5618   30.2462 H       1  UNL1        0.0000
   3508 H          23.8125   -0.0603   36.8729 H      22  UNL22       0.0000
   3509 H          22.4613   -0.8681   37.6404 H      22  UNL22       0.0000
   3510 H          26.3368    9.2739   33.2204 H       1  UNL1        0.0000
   3511 H          24.9652    8.5423   32.4115 H       1  UNL1        0.0000
   3512 H          24.4642    5.6324   35.4656 H       1  UNL1        0.0000
   3513 H          23.9686    5.8990   33.8022 H       1  UNL1        0.0000
   3514 H          23.3789   -4.6862   36.4194 H       1  UNL1        0.0000
   3515 H          22.0431   -3.6938   36.9805 H       1  UNL1        0.0000
   3516 C          25.1168    5.1209   31.5824 C.2     1  UNL1        0.0000
   3517 C          12.5339    2.9266   35.5287 C.3     1  UNL1        0.0000
   3518 C          20.2783   -2.3386   35.5826 C.3     1  UNL1        0.0000
   3519 C          17.3929   10.3675   31.4965 C.3     1  UNL1        0.0000
   3520 C          25.9494    4.5485   32.6507 C.2     1  UNL1        0.0000
   3521 C          11.6428    3.5024   34.4844 C.ar    1  UNL1        0.0000
   3522 C          21.1287   -2.9947   34.5760 C.ar    1  UNL1        0.0000
   3523 C          16.5470   10.9913   32.5529 C.ar    1  UNL1        0.0000
   3524 C          25.6489    4.7379   34.0393 C.3     1  UNL1        0.0000
   3525 C          11.9286    3.3002   33.1168 C.ar    1  UNL1        0.0000
   3526 C          22.2151   -3.8585   34.9368 C.ar    1  UNL1        0.0000
   3527 C          15.4681   11.8304   32.1974 C.ar    1  UNL1        0.0000
   3528 C          16.8437   10.7397   33.8882 C.ar    1  UNL1        0.0000
   3529 C          20.8534   -2.7592   33.2089 C.ar    1  UNL1        0.0000
   3530 C          27.0876    3.7951   32.2810 C.3     1  UNL1        0.0000
   3531 C          10.5306    4.2370   34.8808 C.ar    1  UNL1        0.0000
   3532 C          19.4370    5.1657   32.9733 C.ar    1  UNL1        0.0000
   3533 C          18.1360    2.9808   34.1688 C.ar    1  UNL1        0.0000
   3534 C          23.2280   10.4833   32.8788 C.2     1  UNL1        0.0000
   3535 C          14.5600   -2.5370   34.2237 C.ar    1  UNL1        0.0000
   3536 C          24.3834    1.5746   26.9121 C.ar    1  UNL1        0.0000
   3537 C          18.1184   13.9372   26.9552 C.ar    1  UNL1        0.0000
   3538 C          28.0701    7.0041   26.7860 C.2     1  UNL1        0.0000
   3539 C          14.4777    8.5070   26.7750 C.ar    1  UNL1        0.0000
   3540 C          20.1596    6.2450   32.2790 C.3     1  UNL1        0.0000
   3541 C          17.4390    1.8331   34.8214 C.3     1  UNL1        0.0000
   3542 C          22.5550    9.4445   32.0907 C.2     1  UNL1        0.0000
   3543 C          15.2056   -1.4457   35.0049 C.3     1  UNL1        0.0000
   3544 C          24.4370    3.0636   26.9153 C.3     1  UNL1        0.0000
   3545 C          18.0999   12.4694   26.9091 C.3     1  UNL1        0.0000
   3546 C          26.7811    6.2950   26.8108 C.2     1  UNL1        0.0000
   3547 C          15.7759    9.2425   26.8116 C.3     1  UNL1        0.0000
   3548 C          18.0673    5.2935   33.3736 C.ar    1  UNL1        0.0000
   3549 C          19.4923    2.8634   33.7959 C.ar    1  UNL1        0.0000
   3550 C          22.5080   11.6566   33.2022 C.3     1  UNL1        0.0000
   3551 C          15.2959   -3.6771   33.9205 C.ar    1  UNL1        0.0000
   3552 C          24.2930    0.9079   28.1287 C.ar    1  UNL1        0.0000
   3553 C          13.3540    7.1655   39.0954 C.2    21  UNL21       0.0000
   3554 C          28.6484    7.3818   28.0198 C.3     1  UNL1        0.0000
   3555 C           9.0816    0.6683   38.9065 C.2    15  UNL15       0.0000
   3556 C          24.5903   10.3498   33.3025 C.3     1  UNL1        0.0000
   3557 C          13.2146   -2.4104   33.8163 C.ar    1  UNL1        0.0000
   3558 C          20.1157    3.9468   33.2038 C.ar    1  UNL1        0.0000
   3559 C          17.4426    4.1688   33.9626 C.ar    1  UNL1        0.0000
   3560 C          23.8755   -0.1261   38.9243 C.3    22  UNL22       0.0000
   3561 C          13.8322    8.1527   27.9795 C.ar    1  UNL1        0.0000
   3562 C          19.5496   -6.6188   39.0553 C.2    18  UNL18       0.0000
   3563 C          18.0786   14.6625   28.1904 C.ar    1  UNL1        0.0000
   3564 N          17.3604    6.4588   33.2420 N.pl3   1  UNL1        0.0000
   3565 N          17.9450   14.0568   29.4073 N.pl3   1  UNL1        0.0000
   3566 N          23.4074   -0.4948   37.6923 N.3    22  UNL22       0.0000
   3567 N          25.3375    9.2285   33.0660 N.3     1  UNL1        0.0000
   3568 N          24.5469    5.4104   34.4820 N.3     1  UNL1        0.0000
   3569 N          22.5272   -4.1753   36.2267 N.pl3   1  UNL1        0.0000
   3570 O          24.0972    5.8432   31.9073 O.2     1  UNL1        0.0000
   3571 O          13.4798    2.1493   35.1571 O.3     1  UNL1        0.0000
   3572 O          20.5515   -2.5220   36.8337 O.3     1  UNL1        0.0000
   3573 O          17.0619   10.5357   30.2746 O.3     1  UNL1        0.0000
   3574 O          18.4165    9.6873   31.8759 O.3     1  UNL1        0.0000
   3575 O          19.3034   -1.5973   35.1982 O.3     1  UNL1        0.0000
   3576 O          25.4331    4.8909   30.3560 O.2     1  UNL1        0.0000
   3577 O          12.3046    3.2432   36.7517 O.3     1  UNL1        0.0000
   3578 O          22.7618    5.2136   29.5581 O.3     1  UNL1        0.0000
   3579 O          14.9543    2.8034   37.4437 O.3     1  UNL1        0.0000
   3580 O          24.1751    7.2300   29.4912 O.3     1  UNL1        0.0000
   3581 O          13.4657    0.8550   37.6278 O.3     1  UNL1        0.0000
   3582 O          17.9056   -2.3281   37.4506 O.3     1  UNL1        0.0000
   3583 O          19.7080   10.4033   29.5873 O.3     1  UNL1        0.0000
   3584 O          19.1422   -0.2169   37.7037 O.3     1  UNL1        0.0000
   3585 O          18.5512    8.2356   29.4295 O.3     1  UNL1        0.0000
   3586 O          21.4031    6.0569   31.9890 O.3     1  UNL1        0.0000
   3587 O          16.1795    1.9130   35.0088 O.3     1  UNL1        0.0000
   3588 O          23.1840    8.3849   31.7643 O.2     1  UNL1        0.0000
   3589 O          14.4776   -0.4731   35.3926 O.3     1  UNL1        0.0000
   3590 O          19.5633   -3.8134   39.1449 O.3     1  UNL1        0.0000
   3591 O          18.0055   11.8022   27.9973 O.3     1  UNL1        0.0000
   3592 O          21.3587   -1.4902   39.0625 O.3     1  UNL1        0.0000
   3593 O          16.3127    9.4077   27.9659 O.3     1  UNL1        0.0000
   3594 O          21.3257    9.6405   31.7371 O.2     1  UNL1        0.0000
   3595 O          16.4530   -1.5402   35.2561 O.3     1  UNL1        0.0000
   3596 O          19.5370    7.3233   31.9764 O.3     1  UNL1        0.0000
   3597 O          18.1593    0.8310   35.1637 O.3     1  UNL1        0.0000
   3598 O          26.2612    6.0092   27.9553 O.2     1  UNL1        0.0000
   3599 O          11.4243    2.1708   39.0782 O.3     1  UNL1        0.0000
   3600 O          24.4908    3.6642   28.0332 O.3     1  UNL1        0.0000
   3601 O          13.3380    4.4066   39.1256 O.3     1  UNL1        0.0000
   3602 O          21.2363    7.7099   29.7187 O.3     1  UNL1        0.0000
   3603 O          16.4148    0.3447   37.3246 O.3     1  UNL1        0.0000
   3604 O          23.6528    6.1396   26.9041 O.3     1  UNL1        0.0000
   3605 O          18.8764    9.3574   26.8194 O.3     1  UNL1        0.0000
   3606 H          16.6233    3.3766   39.2545 H      42  UNL42       0.0000
   3607 H          18.0805    2.9357   36.9325 H      42  UNL42       0.0000
   3608 C          17.6508    3.0600   39.1170 C.2    42  UNL42       0.0000
   3609 H          20.6367    3.9753   36.2577 H      42  UNL42       0.0000
   3610 C          18.3697    2.8432   37.9702 C.2    42  UNL42       0.0000
   3611 H          17.8426    3.9196   41.8264 H      42  UNL42       0.0000
   3612 N          18.5020    2.7833   40.1760 N.pl3  42  UNL42       0.0000
   3613 C          21.3733    3.4093   36.8423 C.3    42  UNL42       0.0000
   3614 H          21.7831    4.0505   37.6316 H      42  UNL42       0.0000
   3615 C          18.1474    2.8922   41.5990 C.3    42  UNL42       0.0000
   3616 N          19.6454    2.4541   38.3395 N.pl3  42  UNL42       0.0000
   3617 H          17.3207    2.2077   41.8215 H      42  UNL42       0.0000
   3618 H          22.1882    3.1291   36.1592 H      42  UNL42       0.0000
   3619 C          19.7001    2.4131   39.6825 C.3    42  UNL42       0.0000
   3620 C          20.7622    2.1363   37.4190 C.3    42  UNL42       0.0000
   3621 H          20.3521    1.4768   36.6450 H      42  UNL42       0.0000
   3622 H          19.0147    2.6084   42.2029 H      42  UNL42       0.0000
   3623 H          20.5616    2.1336   40.2753 H      42  UNL42       0.0000
   3624 H          21.4857    1.5481   37.9960 H      42  UNL42       0.0000
   3625 TI         16.6400   32.6291   11.5235 Ti      1  UNL1        0.0000
   3626 TI         27.7180   35.6919    1.9128 Ti      1  UNL1        0.0000
   3627 TI         21.1849   29.3143    9.6276 Ti      1  UNL1        0.0000
   3628 TI         23.1258   39.0056    3.8044 Ti      1  UNL1        0.0000
   3629 TI         21.4532   39.8941    1.8373 Ti      1  UNL1        0.0000
   3630 TI         22.6561   28.1496   11.5968 Ti      1  UNL1        0.0000
   3631 TI         18.0872   31.3288    9.6244 Ti      1  UNL1        0.0000
   3632 TI         26.0022   36.7356    3.7615 Ti      1  UNL1        0.0000
   3633 H          23.2878   31.9971    7.1475 H       1  UNL1        0.0000
   3634 H          19.6022   26.3272    7.4332 H       1  UNL1        0.0000
   3635 H          24.7517   41.7914    6.0344 H       1  UNL1        0.0000
   3636 H          16.6525   36.6494   11.3553 H       1  UNL1        0.0000
   3637 H          27.5441   31.5618    2.2224 H       1  UNL1        0.0000
   3638 H          12.8871   31.0167   11.1746 H       1  UNL1        0.0000
   3639 H          31.3905   37.1697    2.1016 H       1  UNL1        0.0000
   3640 H          22.8875   23.9934   11.2923 H       1  UNL1        0.0000
   3641 H          17.5496   38.5102    2.1035 H       1  UNL1        0.0000
   3642 H          24.4271   33.9546    6.0619 H       1  UNL1        0.0000
   3643 H          19.6739   34.2988    7.4479 H       1  UNL1        0.0000
   3644 H          15.9359   28.5600    7.2442 H       1  UNL1        0.0000
   3645 H          22.3188   38.4704   -0.0835 H       1  UNL1        0.0000
   3646 H          26.6980   37.1560    0.0873 H       1  UNL1        0.0000
   3647 H          20.0595   30.9893   11.1934 H       1  UNL1        0.0000
   3648 H          24.0577   37.2555    2.2085 H       1  UNL1        0.0000
   3649 H          23.2937   27.9693    6.1491 H       1  UNL1        0.0000
   3650 H          20.9546   40.1575    7.3050 H       1  UNL1        0.0000
   3651 H          13.6114   34.4389    9.1195 H       1  UNL1        0.0000
   3652 H          30.5543   33.7413    4.3936 H       1  UNL1        0.0000
   3653 H          16.0746   32.7898    6.0062 H       1  UNL1        0.0000
   3654 H          18.5249   42.0826    4.3243 H       1  UNL1        0.0000
   3655 H          19.6287   36.4956    6.5342 H       1  UNL1        0.0000
   3656 H          21.0420   37.2597    5.8373 H       1  UNL1        0.0000
   3657 H          21.2884   43.1117    2.6250 H       1  UNL1        0.0000
   3658 H          27.5080   29.5077    3.4220 H       1  UNL1        0.0000
   3659 H          27.0858   30.0092   10.0486 H       1  UNL1        0.0000
   3660 H          25.7346   29.2014   10.8162 H       1  UNL1        0.0000
   3661 H          29.6100   39.3434    6.3961 H       1  UNL1        0.0000
   3662 H          28.2384   38.6117    5.5873 H       1  UNL1        0.0000
   3663 H          27.7375   35.7019    8.6413 H       1  UNL1        0.0000
   3664 H          27.2419   35.9684    6.9780 H       1  UNL1        0.0000
   3665 H          26.6521   25.3833    9.5952 H       1  UNL1        0.0000
   3666 H          25.3163   26.3757   10.1562 H       1  UNL1        0.0000
   3667 C          28.3900   35.1904    4.7582 C.2     1  UNL1        0.0000
   3668 C          15.8072   32.9961    8.7045 C.3     1  UNL1        0.0000
   3669 C          23.5515   27.7309    8.7584 C.3     1  UNL1        0.0000
   3670 C          20.6661   40.4370    4.6723 C.2     1  UNL1        0.0000
   3671 C          29.2226   34.6180    5.8265 C.2     1  UNL1        0.0000
   3672 C          14.9161   33.5719    7.6602 C.ar    1  UNL1        0.0000
   3673 C          24.4020   27.0748    7.7518 C.ar    1  UNL1        0.0000
   3674 C          19.8202   41.0608    5.7287 C.2     1  UNL1        0.0000
   3675 C          28.9221   34.8074    7.2151 C.3     1  UNL1        0.0000
   3676 C          15.2018   33.3697    6.2926 C.ar    1  UNL1        0.0000
   3677 C          25.4884   26.2110    8.1126 C.ar    1  UNL1        0.0000
   3678 C          18.7413   41.8999    5.3731 C.3     1  UNL1        0.0000
   3679 C          20.1170   40.8092    7.0640 C.3     1  UNL1        0.0000
   3680 C          24.1266   27.3103    6.3847 C.ar    1  UNL1        0.0000
   3681 C          30.3608   33.8646    5.4567 C.3     1  UNL1        0.0000
   3682 C          13.8038   34.3065    8.0566 C.ar    1  UNL1        0.0000
   3683 C          22.7103   35.2352    6.1491 C.ar    1  UNL1        0.0000
   3684 C          21.4092   33.0503    7.3445 C.ar    1  UNL1        0.0000
   3685 C          26.5013   40.5528    6.0546 C.2     1  UNL1        0.0000
   3686 C          17.8332   27.5325    7.3994 C.ar    1  UNL1        0.0000
   3687 C          27.6566   31.6441    0.0879 C.2     1  UNL1        0.0000
   3688 C          21.3916   44.0067    0.1310 C.2     1  UNL1        0.0000
   3689 C          31.3434   37.0736   -0.0382 C.2     1  UNL1        0.0000
   3690 C          17.7509   38.5765   -0.0492 C.2     1  UNL1        0.0000
   3691 C          23.4328   36.3145    5.4547 C.3     1  UNL1        0.0000
   3692 C          20.7123   31.9026    7.9972 C.3     1  UNL1        0.0000
   3693 C          25.8282   39.5140    5.2665 C.2     1  UNL1        0.0000
   3694 C          18.4789   28.6238    8.1807 C.3     1  UNL1        0.0000
   3695 C          27.7102   33.1331    0.0911 C.2     1  UNL1        0.0000
   3696 C          21.3732   42.5389    0.0849 C.2     1  UNL1        0.0000
   3697 C          30.0544   36.3645   -0.0134 C.2     1  UNL1        0.0000
   3698 C          19.0491   39.3120   -0.0126 C.2     1  UNL1        0.0000
   3699 C          21.3405   35.3630    6.5494 C.ar    1  UNL1        0.0000
   3700 C          22.7656   32.9329    6.9717 C.ar    1  UNL1        0.0000
   3701 C          25.7812   41.7261    6.3780 C.3     1  UNL1        0.0000
   3702 C          18.5692   26.3924    7.0963 C.ar    1  UNL1        0.0000
   3703 C          27.5663   30.9774    1.3045 C.2     1  UNL1        0.0000
   3704 C          16.6272   37.2350   12.2712 C.3     1  UNL1        0.0000
   3705 C          31.9216   37.4513    1.1955 C.3     1  UNL1        0.0000
   3706 C          12.3548   30.7378   12.0823 C.ar    1  UNL1        0.0000
   3707 C          27.8635   40.4193    6.4782 C.3     1  UNL1        0.0000
   3708 C          16.4878   27.6591    6.9921 C.ar    1  UNL1        0.0000
   3709 C          23.3889   34.0163    6.3796 C.ar    1  UNL1        0.0000
   3710 C          20.7158   34.2383    7.1384 C.ar    1  UNL1        0.0000
   3711 C          27.1488   29.9434   12.1001 C.3     1  UNL1        0.0000
   3712 C          17.1054   38.2222    1.1553 C.2     1  UNL1        0.0000
   3713 C          22.8228   23.4507   12.2310 C.ar    1  UNL1        0.0000
   3714 C          21.3518   44.7320    1.3662 C.2     1  UNL1        0.0000
   3715 N          20.6336   36.5283    6.4177 N.pl3   1  UNL1        0.0000
   3716 N          21.2183   44.1263    2.5831 N.2     1  UNL1        0.0000
   3717 N          26.6807   29.5747   10.8681 N.3     1  UNL1        0.0000
   3718 N          28.6107   39.2980    6.2417 N.3     1  UNL1        0.0000
   3719 N          27.8201   35.4799    7.6577 N.3     1  UNL1        0.0000
   3720 N          25.8004   25.8942    9.4025 N.pl3   1  UNL1        0.0000
   3721 O          27.3704   35.9127    5.0831 O.2     1  UNL1        0.0000
   3722 O          16.7530   32.2188    8.3329 O.3     1  UNL1        0.0000
   3723 O          23.8248   27.5475   10.0094 O.3     1  UNL1        0.0000
   3724 O          20.3351   40.6052    3.4504 O.2     1  UNL1        0.0000
   3725 O          21.6898   39.7568    5.0517 O.2     1  UNL1        0.0000
   3726 O          22.5766   28.4722    8.3739 O.3     1  UNL1        0.0000
   3727 O          28.7064   34.9604    3.5318 O.2     1  UNL1        0.0000
   3728 O          15.5778   33.3127    9.9274 O.3     1  UNL1        0.0000
   3729 O          26.0351   35.2831    2.7339 O.3     1  UNL1        0.0000
   3730 O          18.2275   32.8729   10.6194 O.3     1  UNL1        0.0000
   3731 O          27.4483   37.2995    2.6670 O.3     1  UNL1        0.0000
   3732 O          16.7390   30.9245   10.8036 O.3     1  UNL1        0.0000
   3733 O          21.1788   27.7414   10.6264 O.3     1  UNL1        0.0000
   3734 O          22.9812   40.4728    2.7631 O.3     1  UNL1        0.0000
   3735 O          22.4154   29.8526   10.8795 O.3     1  UNL1        0.0000
   3736 O          21.8244   38.3051    2.6052 O.3     1  UNL1        0.0000
   3737 O          24.6764   36.1264    5.1648 O.3     1  UNL1        0.0000
   3738 O          19.4527   31.9825    8.1845 O.3     1  UNL1        0.0000
   3739 O          26.4572   38.4544    4.9401 O.2     1  UNL1        0.0000
   3740 O          17.7509   29.5964    8.5683 O.3     1  UNL1        0.0000
   3741 O          22.8365   26.2561   12.3207 O.3     1  UNL1        0.0000
   3742 O          21.2788   41.8717    1.1731 O.2     1  UNL1        0.0000
   3743 O          24.6319   28.5793   12.2383 O.2     1  UNL1        0.0000
   3744 O          19.5859   39.4772    1.1417 O.2     1  UNL1        0.0000
   3745 O          24.5989   39.7100    4.9129 O.2     1  UNL1        0.0000
   3746 O          19.7262   28.5293    8.4319 O.3     1  UNL1        0.0000
   3747 O          22.8103   37.3928    5.1522 O.3     1  UNL1        0.0000
   3748 O          21.4325   30.9005    8.3395 O.3     1  UNL1        0.0000
   3749 O          29.5344   36.0787    1.1311 O.2     1  UNL1        0.0000
   3750 O          14.6975   32.2403   12.2540 O.3     1  UNL1        0.0000
   3751 O          27.7641   33.7337    1.2090 O.2     1  UNL1        0.0000
   3752 O          16.6112   34.4761   12.3014 O.2     1  UNL1        0.0000
   3753 O          24.5096   37.7794    2.8945 O.3     1  UNL1        0.0000
   3754 O          19.6881   30.4142   10.5004 O.3     1  UNL1        0.0000
   3755 O          26.9260   36.2091    0.0799 O.3     1  UNL1        0.0000
   3756 O          22.1496   39.4269   -0.0049 O.3     1  UNL1        0.0000
   3757 H          19.8965   33.4461   12.4303 H      43  UNL43       0.0000
   3758 H          21.3537   33.0052   10.1083 H      43  UNL43       0.0000
   3759 C          20.9241   33.1295   12.2927 C.2    43  UNL43       0.0000
   3760 H          23.9100   34.0448    9.4335 H      43  UNL43       0.0000
   3761 C          21.6430   32.9127   11.1460 C.2    43  UNL43       0.0000
   3762 H          21.1159   33.9891   15.0022 H      43  UNL43       0.0000
   3763 N          21.7752   32.8528   13.3518 N.pl3  43  UNL43       0.0000
   3764 C          24.6465   33.4788   10.0181 C.3    43  UNL43       0.0000
   3765 H          25.0563   34.1200   10.8074 H      43  UNL43       0.0000
   3766 C          21.4206   32.9617   14.7748 C.3    43  UNL43       0.0000
   3767 N          22.9186   32.5236   11.5153 N.pl3  43  UNL43       0.0000
   3768 H          20.5940   32.2772   14.9973 H      43  UNL43       0.0000
   3769 H          25.4614   33.1986    9.3350 H      43  UNL43       0.0000
   3770 C          22.9733   32.4826   12.8583 C.3    43  UNL43       0.0000
   3771 C          24.0354   32.2058   10.5947 C.3    43  UNL43       0.0000
   3772 H          23.6253   31.5463    9.8208 H      43  UNL43       0.0000
   3773 H          22.2880   32.6779   15.3787 H      43  UNL43       0.0000
   3774 H          23.8349   32.2031   13.4511 H      43  UNL43       0.0000
   3775 H          24.7590   31.6176   11.1718 H      43  UNL43       0.0000
   3776 TI         11.9038   25.1644   24.9356 Ti      1  UNL1        0.0000
   3777 TI         22.9817   28.2271   15.3249 Ti      1  UNL1        0.0000
   3778 TI         16.4487   21.8496   23.0397 Ti      1  UNL1        0.0000
   3779 TI         18.3895   31.5409   17.2165 Ti      1  UNL1        0.0000
   3780 TI         16.7169   32.4293   15.2494 Ti      1  UNL1        0.0000
   3781 TI         17.9199   20.6849   25.0089 Ti      1  UNL1        0.0000
   3782 TI         13.3510   23.8641   23.0365 Ti      1  UNL1        0.0000
   3783 TI         21.2659   29.2709   17.1736 Ti      1  UNL1        0.0000
   3784 H          18.5516   24.5324   20.5596 H       1  UNL1        0.0000
   3785 H          14.8660   18.8625   20.8453 H       1  UNL1        0.0000
   3786 H          20.0154   34.3267   19.4465 H       1  UNL1        0.0000
   3787 H          11.9162   29.1846   24.7674 H       1  UNL1        0.0000
   3788 H          22.8079   24.0971   15.6345 H       1  UNL1        0.0000
   3789 H           8.1508   23.5519   24.5867 H       1  UNL1        0.0000
   3790 H          26.6543   29.7049   15.5137 H       1  UNL1        0.0000
   3791 H          18.1512   16.5287   24.7045 H       1  UNL1        0.0000
   3792 H          12.8133   31.0454   15.5156 H       1  UNL1        0.0000
   3793 H          19.6908   26.4899   19.4740 H       1  UNL1        0.0000
   3794 H          14.9376   26.8341   20.8600 H       1  UNL1        0.0000
   3795 H          11.1996   21.0953   20.6563 H       1  UNL1        0.0000
   3796 H          17.5826   31.0057   13.3287 H       1  UNL1        0.0000
   3797 H          21.9617   29.6913   13.4994 H       1  UNL1        0.0000
   3798 H          15.3232   23.5246   24.6055 H       1  UNL1        0.0000
   3799 H          19.3214   29.7908   15.6206 H       1  UNL1        0.0000
   3800 H          18.5575   20.5046   19.5612 H       1  UNL1        0.0000
   3801 H          16.2184   32.6927   20.7171 H       1  UNL1        0.0000
   3802 H           8.8751   26.9742   22.5316 H       1  UNL1        0.0000
   3803 H          25.8181   26.2766   17.8057 H       1  UNL1        0.0000
   3804 H          11.3383   25.3251   19.4183 H       1  UNL1        0.0000
   3805 H          13.7886   34.6179   17.7364 H       1  UNL1        0.0000
   3806 H          14.8924   29.0308   19.9463 H       1  UNL1        0.0000
   3807 H          16.3058   29.7950   19.2494 H       1  UNL1        0.0000
   3808 H          16.5521   35.6470   16.0371 H       1  UNL1        0.0000
   3809 H          22.7717   22.0429   16.8341 H       1  UNL1        0.0000
   3810 H          22.3495   22.5445   23.4607 H       1  UNL1        0.0000
   3811 H          20.9983   21.7367   24.2283 H       1  UNL1        0.0000
   3812 H          24.8738   31.8786   19.8082 H       1  UNL1        0.0000
   3813 H          23.5021   31.1470   18.9994 H       1  UNL1        0.0000
   3814 H          23.0012   28.2372   22.0534 H       1  UNL1        0.0000
   3815 H          22.5056   28.5037   20.3901 H       1  UNL1        0.0000
   3816 H          21.9159   17.9186   23.0073 H       1  UNL1        0.0000
   3817 H          20.5801   18.9110   23.5683 H       1  UNL1        0.0000
   3818 C          23.6538   27.7257   18.1703 C.2     1  UNL1        0.0000
   3819 C          11.0709   25.5314   22.1166 C.3     1  UNL1        0.0000
   3820 C          18.8152   20.2662   22.1705 C.3     1  UNL1        0.0000
   3821 C          15.9299   32.9723   18.0844 C.2     1  UNL1        0.0000
   3822 C          24.4863   27.1533   19.2386 C.2     1  UNL1        0.0000
   3823 C          10.1798   26.1072   21.0723 C.ar    1  UNL1        0.0000
   3824 C          19.6657   19.6101   21.1639 C.ar    1  UNL1        0.0000
   3825 C          15.0840   33.5961   19.1408 C.2     1  UNL1        0.0000
   3826 C          24.1858   27.3427   20.6272 C.3     1  UNL1        0.0000
   3827 C          10.4656   25.9050   19.7047 C.ar    1  UNL1        0.0000
   3828 C          20.7521   18.7463   21.5247 C.ar    1  UNL1        0.0000
   3829 C          14.0051   34.4351   18.7852 C.3     1  UNL1        0.0000
   3830 C          15.3807   33.3445   20.4761 C.3     1  UNL1        0.0000
   3831 C          19.3904   19.8456   19.7968 C.ar    1  UNL1        0.0000
   3832 C          25.6245   26.3998   18.8688 C.3     1  UNL1        0.0000
   3833 C           9.0676   26.8418   21.4687 C.ar    1  UNL1        0.0000
   3834 C          17.9740   27.7705   19.5612 C.ar    1  UNL1        0.0000
   3835 C          16.6730   25.5856   20.7567 C.ar    1  UNL1        0.0000
   3836 C          21.7650   33.0881   19.4667 C.2     1  UNL1        0.0000
   3837 C          13.0970   20.0678   20.8116 C.ar    1  UNL1        0.0000
   3838 C          22.9203   24.1794   13.5000 C.ar    1  UNL1        0.0000
   3839 C          16.6554   36.5420   13.5431 C.2     1  UNL1        0.0000
   3840 C          26.6071   29.6089   13.3739 C.2     1  UNL1        0.0000
   3841 C          13.0146   31.1117   13.3629 C.ar    1  UNL1        0.0000
   3842 C          18.6965   28.8498   18.8668 C.3     1  UNL1        0.0000
   3843 C          15.9760   24.4379   21.4093 C.3     1  UNL1        0.0000
   3844 C          21.0920   32.0493   18.6786 C.2     1  UNL1        0.0000
   3845 C          13.7426   21.1590   21.5928 C.3     1  UNL1        0.0000
   3846 C          22.9739   25.6683   13.5032 C.3     1  UNL1        0.0000
   3847 C          16.6369   35.0742   13.4970 C.2     1  UNL1        0.0000
   3848 C          25.3181   28.8998   13.3987 C.2     1  UNL1        0.0000
   3849 C          14.3129   31.8472   13.3995 C.3     1  UNL1        0.0000
   3850 C          16.6043   27.8983   19.9615 C.ar    1  UNL1        0.0000
   3851 C          18.0293   25.4682   20.3838 C.ar    1  UNL1        0.0000
   3852 C          21.0450   34.2614   19.7901 C.3     1  UNL1        0.0000
   3853 C          13.8329   18.9277   20.5084 C.ar    1  UNL1        0.0000
   3854 C          22.8300   23.5126   14.7166 C.ar    1  UNL1        0.0000
   3855 C          11.8909   29.7703   25.6833 C.3     1  UNL1        0.0000
   3856 C          27.1853   29.9865   14.6077 C.3     1  UNL1        0.0000
   3857 C           7.6185   23.2731   25.4944 C.ar    1  UNL1        0.0000
   3858 C          23.1273   32.9545   19.8903 C.3     1  UNL1        0.0000
   3859 C          11.7516   20.1944   20.4042 C.ar    1  UNL1        0.0000
   3860 C          18.6527   26.5515   19.7917 C.ar    1  UNL1        0.0000
   3861 C          15.9795   26.7735   20.5505 C.ar    1  UNL1        0.0000
   3862 C          22.4125   22.4787   25.5122 C.3     1  UNL1        0.0000
   3863 C          12.3692   30.7575   14.5674 C.ar    1  UNL1        0.0000
   3864 C          18.0865   15.9860   25.6431 C.ar    1  UNL1        0.0000
   3865 C          16.6156   37.2673   14.7783 C.2     1  UNL1        0.0000
   3866 N          15.8973   29.0636   19.8299 N.pl3   1  UNL1        0.0000
   3867 N          16.4820   36.6616   15.9952 N.2     1  UNL1        0.0000
   3868 N          21.9444   22.1100   24.2802 N.3     1  UNL1        0.0000
   3869 N          23.8745   31.8333   19.6538 N.3     1  UNL1        0.0000
   3870 N          23.0839   28.0152   21.0699 N.3     1  UNL1        0.0000
   3871 N          21.0642   18.4295   22.8146 N.pl3   1  UNL1        0.0000
   3872 O          22.6342   28.4480   18.4952 O.2     1  UNL1        0.0000
   3873 O          12.0167   24.7540   21.7450 O.3     1  UNL1        0.0000
   3874 O          19.0885   20.0828   23.4215 O.3     1  UNL1        0.0000
   3875 O          15.5989   33.1405   16.8625 O.2     1  UNL1        0.0000
   3876 O          16.9535   32.2920   18.4638 O.2     1  UNL1        0.0000
   3877 O          17.8403   21.0075   21.7860 O.3     1  UNL1        0.0000
   3878 O          23.9701   27.4956   16.9439 O.2     1  UNL1        0.0000
   3879 O          10.8416   25.8480   23.3396 O.3     1  UNL1        0.0000
   3880 O          21.2988   27.8184   16.1460 O.3     1  UNL1        0.0000
   3881 O          13.4912   25.4082   24.0316 O.3     1  UNL1        0.0000
   3882 O          22.7121   29.8347   16.0791 O.3     1  UNL1        0.0000
   3883 O          12.0027   23.4598   24.2157 O.3     1  UNL1        0.0000
   3884 O          16.4426   20.2766   24.0385 O.3     1  UNL1        0.0000
   3885 O          18.2449   33.0081   16.1752 O.3     1  UNL1        0.0000
   3886 O          17.6791   22.3879   24.2916 O.3     1  UNL1        0.0000
   3887 O          17.0881   30.8404   16.0173 O.3     1  UNL1        0.0000
   3888 O          19.9401   28.6617   18.5769 O.3     1  UNL1        0.0000
   3889 O          14.7165   24.5178   21.5966 O.3     1  UNL1        0.0000
   3890 O          21.7210   30.9897   18.3522 O.2     1  UNL1        0.0000
   3891 O          13.0146   22.1317   21.9804 O.3     1  UNL1        0.0000
   3892 O          18.1003   18.7914   25.7328 O.3     1  UNL1        0.0000
   3893 O          16.5425   34.4070   14.5852 O.2     1  UNL1        0.0000
   3894 O          19.8957   21.1146   25.6504 O.2     1  UNL1        0.0000
   3895 O          14.8497   32.0125   14.5538 O.3     1  UNL1        0.0000
   3896 O          19.8627   32.2453   18.3250 O.2     1  UNL1        0.0000
   3897 O          14.9899   21.0646   21.8440 O.3     1  UNL1        0.0000
   3898 O          18.0740   29.9280   18.5643 O.3     1  UNL1        0.0000
   3899 O          16.6963   23.4358   21.7516 O.3     1  UNL1        0.0000
   3900 O          24.7982   28.6140   14.5432 O.2     1  UNL1        0.0000
   3901 O           9.9612   24.7756   25.6661 O.3     1  UNL1        0.0000
   3902 O          23.0278   26.2690   14.6211 O.3     1  UNL1        0.0000
   3903 O          11.8749   27.0114   25.7135 O.2     1  UNL1        0.0000
   3904 O          19.7733   30.3147   16.3066 O.3     1  UNL1        0.0000
   3905 O          14.9518   22.9495   23.9125 O.3     1  UNL1        0.0000
   3906 O          22.1897   28.7444   13.4920 O.3     1  UNL1        0.0000
   3907 O          17.4133   31.9622   13.4072 O.3     1  UNL1        0.0000
   3908 H          15.1602   25.9814   25.8424 H      44  UNL44       0.0000
   3909 H          16.6175   25.5404   23.5204 H      44  UNL44       0.0000
   3910 C          16.1878   25.6648   25.7048 C.2    44  UNL44       0.0000
   3911 H          19.1737   26.5800   22.8456 H      44  UNL44       0.0000
   3912 C          16.9067   25.4479   24.5581 C.2    44  UNL44       0.0000
   3913 H          16.3796   26.5244   28.4143 H      44  UNL44       0.0000
   3914 N          17.0390   25.3881   26.7639 N.pl3  44  UNL44       0.0000
   3915 C          19.9103   26.0140   23.4302 C.3    44  UNL44       0.0000
   3916 H          20.3201   26.6553   24.2195 H      44  UNL44       0.0000
   3917 C          16.6843   25.4970   28.1869 C.3    44  UNL44       0.0000
   3918 N          18.1824   25.0588   24.9274 N.pl3  44  UNL44       0.0000
   3919 H          15.8577   24.8125   28.4094 H      44  UNL44       0.0000
   3920 H          20.7252   25.7339   22.7471 H      44  UNL44       0.0000
   3921 C          18.2370   25.0178   26.2704 C.3    44  UNL44       0.0000
   3922 C          19.2992   24.7410   24.0069 C.3    44  UNL44       0.0000
   3923 H          18.8891   24.0816   23.2329 H      44  UNL44       0.0000
   3924 H          17.5517   25.2132   28.7908 H      44  UNL44       0.0000
   3925 H          19.0986   24.7384   26.8632 H      44  UNL44       0.0000
   3926 H          20.0227   24.1529   24.5839 H      44  UNL44       0.0000
   3927 TI          7.1675   17.6997   38.3477 Ti      1  UNL1        0.0000
   3928 TI         18.2455   20.7624   28.7370 Ti      1  UNL1        0.0000
   3929 TI         11.7124   14.3849   36.4518 Ti      1  UNL1        0.0000
   3930 TI         13.6533   24.0762   30.6286 Ti      1  UNL1        0.0000
   3931 TI         11.9806   24.9646   28.6615 Ti      1  UNL1        0.0000
   3932 TI         13.1836   13.2202   38.4211 Ti      1  UNL1        0.0000
   3933 TI          8.6147   16.3993   36.4486 Ti      1  UNL1        0.0000
   3934 TI         16.5297   21.8061   30.5857 Ti      1  UNL1        0.0000
   3935 H          13.8153   17.0677   33.9718 H       1  UNL1        0.0000
   3936 H          10.1297   11.3978   34.2574 H       1  UNL1        0.0000
   3937 H          15.2792   26.8620   32.8586 H       1  UNL1        0.0000
   3938 H           7.1800   21.7199   38.1795 H      45  UNL45       0.0000
   3939 H          18.0716   16.6323   29.0466 H       1  UNL1        0.0000
   3940 H           3.4146   16.0872   37.9988 H      17  UNL17       0.0000
   3941 H          21.9180   22.2402   28.9258 H       1  UNL1        0.0000
   3942 H          13.4150    9.0640   38.1166 H      21  UNL21       0.0000
   3943 H           8.0771   23.5807   28.9277 H       1  UNL1        0.0000
   3944 H          14.9546   19.0252   32.8862 H       1  UNL1        0.0000
   3945 H          10.2014   19.3694   34.2721 H       1  UNL1        0.0000
   3946 H           6.4634   13.6305   34.0684 H       1  UNL1        0.0000
   3947 H          12.8463   23.5410   26.7408 H       1  UNL1        0.0000
   3948 H          17.2254   22.2266   26.9115 H       1  UNL1        0.0000
   3949 H          10.5870   16.0599   38.0176 H       1  UNL1        0.0000
   3950 H          14.5851   22.3261   29.0328 H       1  UNL1        0.0000
   3951 H          13.8212   13.0398   32.9733 H       1  UNL1        0.0000
   3952 H          11.4821   25.2280   34.1292 H       1  UNL1        0.0000
   3953 H           4.1388   19.5095   35.9437 H       1  UNL1        0.0000
   3954 H          21.0818   18.8118   31.2178 H       1  UNL1        0.0000
   3955 H           6.6020   17.8604   32.8304 H       1  UNL1        0.0000
   3956 H           9.0523   27.1531   31.1485 H       1  UNL1        0.0000
   3957 H          10.1561   21.5661   33.3584 H       1  UNL1        0.0000
   3958 H          11.5695   22.3303   32.6615 H       1  UNL1        0.0000
   3959 H          11.8159   28.1823   29.4492 H       1  UNL1        0.0000
   3960 H          18.0355   14.5782   30.2462 H       1  UNL1        0.0000
   3961 H          17.6133   15.0798   36.8729 H      45  UNL45       0.0000
   3962 H          16.2620   14.2720   37.6404 H      45  UNL45       0.0000
   3963 H          20.1375   24.4139   33.2204 H       1  UNL1        0.0000
   3964 H          18.7659   23.6823   32.4115 H       1  UNL1        0.0000
   3965 H          18.2650   20.7725   35.4656 H       1  UNL1        0.0000
   3966 H          17.7694   21.0390   33.8022 H       1  UNL1        0.0000
   3967 H          17.1796   10.4538   36.4194 H       1  UNL1        0.0000
   3968 H          15.8438   11.4462   36.9805 H       1  UNL1        0.0000
   3969 C          18.9175   20.2610   31.5824 C.2     1  UNL1        0.0000
   3970 C           6.3346   18.0666   35.5287 C.3     1  UNL1        0.0000
   3971 C          14.0790   12.8014   35.5826 C.3     1  UNL1        0.0000
   3972 C          11.1936   25.5076   31.4965 C.2     1  UNL1        0.0000
   3973 C          19.7501   19.6885   32.6507 C.2     1  UNL1        0.0000
   3974 C           5.4436   18.6425   34.4844 C.ar    1  UNL1        0.0000
   3975 C          14.9294   12.1454   34.5760 C.ar    1  UNL1        0.0000
   3976 C          10.3477   26.1314   32.5529 C.2     1  UNL1        0.0000
   3977 C          19.4496   19.8779   34.0393 C.3     1  UNL1        0.0000
   3978 C           5.7293   18.4403   33.1168 C.ar    1  UNL1        0.0000
   3979 C          16.0158   11.2815   34.9368 C.ar    1  UNL1        0.0000
   3980 C           9.2688   26.9704   32.1974 C.3     1  UNL1        0.0000
   3981 C          10.6445   25.8798   33.8882 C.3     1  UNL1        0.0000
   3982 C          14.6541   12.3809   33.2089 C.ar    1  UNL1        0.0000
   3983 C          20.8883   18.9351   32.2810 C.3     1  UNL1        0.0000
   3984 C           4.3313   19.3771   34.8808 C.ar    1  UNL1        0.0000
   3985 C          13.2378   20.3058   32.9733 C.ar    1  UNL1        0.0000
   3986 C          11.9367   18.1208   34.1688 C.ar    1  UNL1        0.0000
   3987 C          17.0287   25.6234   32.8788 C.2     1  UNL1        0.0000
   3988 C           8.3607   12.6031   34.2237 C.ar    1  UNL1        0.0000
   3989 C          18.1841   16.7146   26.9121 C.ar    1  UNL1        0.0000
   3990 C          11.9191   29.0773   26.9552 C.2     1  UNL1        0.0000
   3991 C          21.8709   22.1441   26.7860 C.2     1  UNL1        0.0000
   3992 C           8.2784   23.6470   26.7750 C.ar    1  UNL1        0.0000
   3993 C          13.9603   21.3850   32.2790 C.3     1  UNL1        0.0000
   3994 C          11.2397   16.9732   34.8214 C.3     1  UNL1        0.0000
   3995 C          16.3557   24.5846   32.0907 C.2     1  UNL1        0.0000
   3996 C           9.0063   13.6943   35.0049 C.3     1  UNL1        0.0000
   3997 C          18.2377   18.2036   26.9153 C.3     1  UNL1        0.0000
   3998 C          11.9007   27.6095   26.9091 C.2     1  UNL1        0.0000
   3999 C          20.5819   21.4351   26.8108 C.2     1  UNL1        0.0000
   4000 C           9.5766   24.3825   26.8116 C.3     1  UNL1        0.0000
   4001 C          11.8680   20.4335   33.3736 C.ar    1  UNL1        0.0000
   4002 C          13.2930   18.0035   33.7959 C.ar    1  UNL1        0.0000
   4003 C          16.3087   26.7967   33.2022 C.3     1  UNL1        0.0000
   4004 C           9.0966   11.4630   33.9205 C.ar    1  UNL1        0.0000
   4005 C          18.0938   16.0479   28.1287 C.ar    1  UNL1        0.0000
   4006 C           7.1547   22.3056   39.0954 C.3    46  UNL46       0.0000
   4007 C          22.4491   22.5218   28.0198 C.3     1  UNL1        0.0000
   4008 C           2.8823   15.8084   38.9065 C.2    17  UNL17       0.0000
   4009 C          18.3910   25.4898   33.3025 C.3     1  UNL1        0.0000
   4010 C           7.0153   12.7297   33.8163 C.ar    1  UNL1        0.0000
   4011 C          13.9164   19.0868   33.2038 C.ar    1  UNL1        0.0000
   4012 C          11.2433   19.3088   33.9626 C.ar    1  UNL1        0.0000
   4013 C          17.6763   15.0140   38.9243 C.3    45  UNL45       0.0000
   4014 C           7.6329   23.2928   27.9795 C.ar    1  UNL1        0.0000
   4015 C          13.3503    8.5213   39.0553 C.2    21  UNL21       0.0000
   4016 C          11.8793   29.8025   28.1904 C.2     1  UNL1        0.0000
   4017 N          11.1611   21.5989   33.2420 N.pl3   1  UNL1        0.0000
   4018 N          11.7457   29.1969   29.4073 N.2     1  UNL1        0.0000
   4019 N          17.2081   14.6453   37.6923 N.3    45  UNL45       0.0000
   4020 N          19.1382   24.3686   33.0660 N.3     1  UNL1        0.0000
   4021 N          18.3476   20.5504   34.4820 N.3     1  UNL1        0.0000
   4022 N          16.3279   10.9648   36.2267 N.pl3   1  UNL1        0.0000
   4023 O          17.8979   20.9833   31.9073 O.2     1  UNL1        0.0000
   4024 O           7.2805   17.2893   35.1571 O.3     1  UNL1        0.0000
   4025 O          14.3523   12.6181   36.8337 O.3     1  UNL1        0.0000
   4026 O          10.8626   25.6758   30.2746 O.2     1  UNL1        0.0000
   4027 O          12.2172   24.8273   31.8759 O.2     1  UNL1        0.0000
   4028 O          13.1041   13.5427   35.1982 O.3     1  UNL1        0.0000
   4029 O          19.2339   20.0309   30.3560 O.2     1  UNL1        0.0000
   4030 O           6.1053   18.3832   36.7517 O.3     1  UNL1        0.0000
   4031 O          16.5625   20.3537   29.5581 O.3     1  UNL1        0.0000
   4032 O           8.7550   17.9435   37.4437 O.3     1  UNL1        0.0000
   4033 O          17.9758   22.3700   29.4912 O.3     1  UNL1        0.0000
   4034 O           7.2664   15.9951   37.6278 O.3     1  UNL1        0.0000
   4035 O          11.7063   12.8119   37.4506 O.3     1  UNL1        0.0000
   4036 O          13.5087   25.5434   29.5873 O.3     1  UNL1        0.0000
   4037 O          12.9429   14.9231   37.7037 O.3     1  UNL1        0.0000
   4038 O          12.3519   23.3756   29.4295 O.3     1  UNL1        0.0000
   4039 O          15.2038   21.1969   31.9890 O.3     1  UNL1        0.0000
   4040 O           9.9802   17.0530   35.0088 O.3     1  UNL1        0.0000
   4041 O          16.9847   23.5250   31.7643 O.2     1  UNL1        0.0000
   4042 O           8.2783   14.6669   35.3926 O.3     1  UNL1        0.0000
   4043 O          13.3640   11.3267   39.1449 O.3     1  UNL1        0.0000
   4044 O          11.8062   26.9422   27.9973 O.2     1  UNL1        0.0000
   4045 O          15.1594   13.6499   39.0625 O.3     1  UNL1        0.0000
   4046 O          10.1134   24.5477   27.9659 O.3     1  UNL1        0.0000
   4047 O          15.1264   24.7806   31.7371 O.2     1  UNL1        0.0000
   4048 O          10.2537   13.5999   35.2561 O.3     1  UNL1        0.0000
   4049 O          13.3377   22.4633   31.9764 O.3     1  UNL1        0.0000
   4050 O          11.9600   15.9710   35.1637 O.3     1  UNL1        0.0000
   4051 O          20.0619   21.1493   27.9553 O.2     1  UNL1        0.0000
   4052 O           5.2250   17.3108   39.0782 O.3     1  UNL1        0.0000
   4053 O          18.2915   18.8043   28.0332 O.3     1  UNL1        0.0000
   4054 O           7.1387   19.5467   39.1256 O.3     1  UNL1        0.0000
   4055 O          15.0370   22.8500   29.7187 O.3     1  UNL1        0.0000
   4056 O          10.2155   15.4847   37.3246 O.3     1  UNL1        0.0000
   4057 O          17.4535   21.2797   26.9041 O.3     1  UNL1        0.0000
   4058 O          12.6771   24.4975   26.8194 O.3     1  UNL1        0.0000
   4059 H          10.4240   18.5167   39.2545 H      45  UNL45       0.0000
   4060 H          11.8812   18.0757   36.9325 H      45  UNL45       0.0000
   4061 C          11.4515   18.2001   39.1170 C.2    45  UNL45       0.0000
   4062 H          14.4374   19.1153   36.2577 H      45  UNL45       0.0000
   4063 C          12.1705   17.9832   37.9702 C.2    45  UNL45       0.0000
   4064 H          11.6433   19.0597   41.8264 H      45  UNL45       0.0000
   4065 N          12.3027   17.9234   40.1760 N.pl3  45  UNL45       0.0000
   4066 C          15.1740   18.5493   36.8423 C.3    45  UNL45       0.0000
   4067 H          15.5838   19.1906   37.6316 H      45  UNL45       0.0000
   4068 C          11.9481   18.0322   41.5990 C.3    45  UNL45       0.0000
   4069 N          13.4461   17.5941   38.3395 N.pl3  45  UNL45       0.0000
   4070 H          11.1215   17.3478   41.8215 H      45  UNL45       0.0000
   4071 H          15.9889   18.2692   36.1592 H      45  UNL45       0.0000
   4072 C          13.5008   17.5531   39.6825 C.3    45  UNL45       0.0000
   4073 C          14.5629   17.2763   37.4190 C.3    45  UNL45       0.0000
   4074 H          14.1528   16.6169   36.6450 H      45  UNL45       0.0000
   4075 H          12.8154   17.7485   42.2029 H      45  UNL45       0.0000
   4076 H          14.3624   17.2736   40.2753 H      45  UNL45       0.0000
   4077 H          15.2864   16.6882   37.9960 H      45  UNL45       0.0000
@<TRIPOS>BOND
     1  1380  1491    1
     2   474   585    1
     3    21   132    1
     4   927  1038    1
     5  3192  3303    1
     6  1833  1944    1
     7  2739  2850    1
     8  2286  2397    1
     9  3645  3756    1
    10  3690  3698    2
    11  3690  3712    1
    12  1425  1433    2
    13  1425  1447    1
    14   972   980    2
    15   972   994    1
    16  1878  1886    2
    17  1878  1900    1
    18   519   527    2
    19   519   541    1
    20  2784  2792    2
    21  2784  2806    1
    22    66    74    2
    23    66    88    1
    24  3237  3245    2
    25  3237  3259    1
    26  2331  2339    2
    27  2331  2353    1
    28  2783  2791    2
    29  2783  2799    1
    30    65    73    2
    31    65    81    1
    32   518   526    2
    33   518   534    1
    34  1877  1885    2
    35  1877  1893    1
    36  2330  2338    2
    37  2330  2346    1
    38   971   979    2
    39   971   987    1
    40  3236  3244    2
    41  3236  3252    1
    42  1424  1432    2
    43  1424  1440    1
    44  3689  3697    2
    45  3689  3705    1
    46  1432  1484    1
    47   979  1031    1
    48  3244  3296    1
    49  3697  3749    1
    50  2791  2843    1
    51    73   125    1
    52  1885  1937    1
    53   526   578    1
    54  2338  2390    1
    55  2339  2385    1
    56  3245  3291    1
    57  3698  3744    1
    58  2792  2838    1
    59   527   573    1
    60    74   120    1
    61  1433  1479    1
    62   980  1026    1
    63  1886  1932    1
    64  1038   911    1
    65   132     5    1
    66  1944  1817    1
    67  2397  2270    1
    68  2850  2723    1
    69  3756  3629    1
    70   585   458    1
    71  3303  3176    1
    72  1491  1364    1
    73  1943  1834    1
    74  1943  1814    1
    75  3302  3193    1
    76  3302  3173    1
    77  1490  1381    1
    78  1490  1361    1
    79  2849  2740    1
    80  2849  2720    1
    81  3755  3646    1
    82  3755  3626    1
    83   584   475    1
    84   584   455    1
    85   131    22    1
    86   131     2    1
    87  1037   928    1
    88  1037   908    1
    89  2396  2287    1
    90  2396  2267    1
    91    72    64    2
    92    72   118    1
    93  1431  1423    2
    94  1431  1477    1
    95  2790  2782    2
    96  2790  2836    1
    97  2337  2329    2
    98  2337  2383    1
    99  3243  3235    2
   100  3243  3289    1
   101   525   517    2
   102   525   571    1
   103  3696  3688    2
   104  3696  3742    1
   105  1884  1876    2
   106  1884  1930    1
   107   978   970    2
   108   978  1024    1
   109  2781  2789    2
   110  2781  2797    1
   111  3687  3695    2
   112  3687  3703    1
   113    63    71    2
   114    63    79    1
   115  1422  1430    2
   116  1422  1438    1
   117  3234  3242    2
   118  3234  3250    1
   119   516   524    2
   120   516   532    1
   121  2328  2336    2
   122  2328  2344    1
   123   969   977    2
   124   969   985    1
   125  1875  1883    2
   126  1875  1891    1
   127  3242  3298    1
   128    71   127    1
   129   524   580    1
   130  1883  1939    1
   131   977  1033    1
   132  1430  1486    1
   133  3695  3751    1
   134  2789  2845    1
   135  2336  2392    1
   136  3688  3714    1
   137  2329  2355    1
   138  1876  1902    1
   139   970   996    1
   140   517   543    1
   141    64    90    1
   142  3235  3261    1
   143  1423  1449    1
   144  2782  2808    1
   145  1031   908    1
   146   578   455    1
   147  3749  3626    1
   148  1937  1814    1
   149  2843  2720    1
   150  2390  2267    1
   151   125     2    1
   152  3296  3173    1
   153  1484  1361    1
   154   120     5    1
   155  2838  2723    1
   156   573   458    1
   157  1932  1817    1
   158  2385  2270    1
   159  1479  1364    1
   160  3291  3176    1
   161  1026   911    1
   162  3744  3629    1
   163  1447    81    2
   164  1447  1376    1
   165  1900   534    2
   166  1900  1829    1
   167  3712  2346    2
   168  3712  3641    1
   169  3259  1893    2
   170  3259  3188    1
   171    88    17    1
   172   994   923    1
   173  2353   987    2
   174  2353  2282    1
   175  2806  1440    2
   176  2806  2735    1
   177   541   470    1
   178   571   458    1
   179  2383  2270    1
   180  3742  3629    1
   181  2836  2723    1
   182  1477  1364    1
   183  3289  3176    1
   184   118     5    1
   185  1930  1817    1
   186  1024   911    1
   187    81    15    1
   188  1440  1374    1
   189  3705  3639    1
   190   987   921    1
   191  2799  2733    1
   192  3252  3186    1
   193  2346  2280    1
   194  1893  1827    1
   195   534   468    1
   196  3298  3173    1
   197  2392  2267    1
   198   580   455    1
   199  1939  1814    1
   200  1033   908    1
   201  3751  3626    1
   202  1486  1361    1
   203  2845  2720    1
   204   127     2    1
   205  2797  2731    1
   206    79    13    1
   207  1438  1372    1
   208  2344  1902    2
   209  2344  2278    1
   210  3250  2808    2
   211  3250  3184    1
   212   532    90    2
   213   532   466    1
   214  1891  1449    2
   215  1891  1825    1
   216   985   543    2
   217   985   919    1
   218  3703  3261    2
   219  3703  3637    1
   220  1902  1904    1
   221  1449  1451    1
   222  2355  2357    2
   223   543   545    1
   224  2808  2810    1
   225   996   998    2
   226  3714  3716    2
   227  3261  3263    1
   228    90    92    1
   229   458   565    1
   230   458   563    1
   231   458   553    1
   232     5   112    1
   233     5   110    1
   234     5   100    1
   235  2270  2377    1
   236  2270  2375    1
   237  2270  2365    1
   238  3629  3736    1
   239  3629  3734    1
   240  3629  3724    1
   241  1817  1924    1
   242  1817  1922    1
   243  1817  1912    1
   244  3176  3283    1
   245  3176  3281    1
   246  3176  3271    1
   247  2723  2830    1
   248  2723  2828    1
   249  2723  2818    1
   250   911  1018    1
   251   911  1016    1
   252   911  1006    1
   253  1364  1471    1
   254  1364  1469    1
   255  1364  1459    1
   256   455   560    1
   257   455   558    1
   258   455   556    1
   259  3626  3731    1
   260  3626  3729    1
   261  3626  3727    1
   262  3173  3278    1
   263  3173  3276    1
   264  3173  3274    1
   265   908  1013    1
   266   908  1011    1
   267   908  1009    1
   268     2   107    1
   269     2   105    1
   270     2   103    1
   271  1361  1466    1
   272  1361  1464    1
   273  1361  1462    1
   274  1814  1919    1
   275  1814  1917    1
   276  1814  1915    1
   277  2267  2372    1
   278  2267  2370    1
   279  2267  2368    1
   280  2720  2825    1
   281  2720  2823    1
   282  2720  2821    1
   283  1383  1488    1
   284   477   582    1
   285    24   129    1
   286  3648  3753    1
   287  3195  3300    1
   288   930  1035    1
   289  1836  1941    1
   290  2289  2394    1
   291  2742  2847    1
   292  1451  1392    1
   293  1451  1846    1
   294   998   939    1
   295  1904  1845    1
   296  1904  2299    1
   297  3716  3657    1
   298    92    33    1
   299    92   487    1
   300  3263  3204    1
   301  3263  3658    1
   302   545   486    1
   303   545   940    1
   304  2810  2751    1
   305  2810  3205    1
   306  2357  2298    1
   307  3736  3628    1
   308  1924  1816    1
   309  2377  2269    1
   310  1471  1363    1
   311   112     4    1
   312   565   457    1
   313  2830  2722    1
   314  1018   910    1
   315  3283  3175    1
   316  3278  3179    1
   317  1013   914    1
   318  2825  2726    1
   319  2372  2273    1
   320  3731  3632    1
   321   107     8    1
   322  1466  1367    1
   323   560   461    1
   324  1919  1820    1
   325   105     8    1
   326  1917  1820    1
   327  2370  2273    1
   328  3276  3179    1
   329  2823  2726    1
   330  3729  3632    1
   331   558   461    1
   332  1464  1367    1
   333  1011   914    1
   334  2375  2269    1
   335  2828  2722    1
   336  3281  3175    1
   337  3734  3628    1
   338   110     4    1
   339  1922  1816    1
   340   563   457    1
   341  1016   910    1
   342  1469  1363    1
   343  1488  1367    1
   344  2394  2273    1
   345  1035   914    1
   346  1941  1820    1
   347  2847  2726    1
   348   582   461    1
   349   129     8    1
   350  3753  3632    1
   351  3300  3179    1
   352  3271  3217    1
   353  2818  2764    1
   354  3724  3670    1
   355   553   499    1
   356  1912  1858    1
   357  1006   952    1
   358  1459  1405    1
   359   100    46    1
   360  2365  2311    1
   361   556   496    1
   362  1009   949    1
   363  3274  3214    1
   364  1915  1855    1
   365  1462  1402    1
   366  2368  2308    1
   367  3727  3667    1
   368  2821  2761    1
   369   103    43    1
   370  2273  2380    1
   371  2273  2362    1
   372  2273  2378    1
   373  1367  1474    1
   374  1367  1456    1
   375  1367  1472    1
   376  3632  3739    1
   377  3632  3721    1
   378  3632  3737    1
   379  1820  1927    1
   380  1820  1909    1
   381  1820  1925    1
   382     8   115    1
   383     8    97    1
   384     8   113    1
   385  3179  3286    1
   386  3179  3268    1
   387  3179  3284    1
   388   914  1021    1
   389   914  1003    1
   390   914  1019    1
   391  2726  2833    1
   392  2726  2815    1
   393  2726  2831    1
   394   461   568    1
   395   461   550    1
   396   461   566    1
   397  1363  1480    1
   398  1363  1460    1
   399  1363  1482    1
   400  3175  3292    1
   401  3175  3272    1
   402  3175  3294    1
   403  2722  2839    1
   404  2722  2819    1
   405  2722  2841    1
   406   910  1027    1
   407   910  1007    1
   408   910  1029    1
   409   457   574    1
   410   457   554    1
   411   457   576    1
   412     4   121    1
   413     4   101    1
   414     4   123    1
   415  1816  1933    1
   416  1816  1913    1
   417  1816  1935    1
   418  3628  3745    1
   419  3628  3725    1
   420  3628  3747    1
   421  2269  2386    1
   422  2269  2366    1
   423  2269  2388    1
   424  2295  2319    1
   425   483   507    1
   426  1842  1866    1
   427    30    54    1
   428   936   960    1
   429  1389  1413    1
   430  3654  3678    1
   431  2748  2772    1
   432  3201  3225    1
   433  1387  1416    1
   434  2746  2775    1
   435    28    57    1
   436   481   510    1
   437  1840  1869    1
   438  2293  2322    1
   439  3652  3681    1
   440  3199  3228    1
   441   934   963    1
   442  3670  3725    1
   443  3670  3674    2
   444  2764  2819    1
   445  2764  2768    1
   446   499   554    1
   447   499   503    1
   448    46   101    1
   449    46    50    1
   450  1858  1913    1
   451  1858  1862    1
   452  1405  1460    1
   453  1405  1409    1
   454   952  1007    1
   455   952   956    2
   456  3217  3272    1
   457  3217  3221    1
   458  2311  2366    1
   459  2311  2315    2
   460  3667  3721    1
   461  3667  3671    2
   462   496   550    1
   463   496   500    1
   464  2761  2815    1
   465  2761  2765    2
   466  1402  1456    1
   467  1402  1406    1
   468   949  1003    1
   469   949   953    1
   470  3214  3268    1
   471  3214  3218    2
   472  2308  2362    1
   473  2308  2312    1
   474    43    97    1
   475    43    47    1
   476  1855  1909    1
   477  1855  1859    1
   478  3292  3240    1
   479  2839  2787    1
   480  1027   975    1
   481  1480  1428    1
   482  2386  2334    1
   483  1933  1881    1
   484   574   522    1
   485   121    69    1
   486  3745  3693    1
   487  1021   975    1
   488  3286  3240    1
   489  2833  2787    1
   490  3739  3693    1
   491  1474  1428    1
   492   568   522    1
   493  1927  1881    1
   494   115    69    1
   495  2380  2334    1
   496  2388  2332    1
   497   123    67    1
   498   576   520    1
   499  1029   973    1
   500  1482  1426    1
   501  3747  3691    1
   502  2841  2785    1
   503  1935  1879    1
   504  3294  3238    1
   505   113    67    1
   506  2378  2332    1
   507  1925  1879    1
   508  1019   973    1
   509  2831  2785    1
   510  3284  3238    1
   511   566   520    1
   512  3737  3691    1
   513  1472  1426    1
   514  3240  3232    2
   515    69    61    1
   516   975   967    2
   517  1881  1873    1
   518  2787  2779    2
   519   522   514    1
   520  3693  3685    2
   521  1428  1420    1
   522  2334  2326    2
   523   507   503   ar
   524   507   962   ar
   525  1866  1862   ar
   526  1866  2321   ar
   527  3225  3221   ar
   528  3225  3680   ar
   529  2772  2768   ar
   530  2772  3227   ar
   531   960   956    1
   532  2319  2315    1
   533  1413  1409   ar
   534  1413  1868   ar
   535  3678  3674    1
   536    54    50   ar
   537    54   509   ar
   538  2332  2324    1
   539   520   512    1
   540  3691  3683    1
   541   973   965    1
   542  2785  2777    1
   543  3238  3230    1
   544  1879  1871    1
   545    67    59    1
   546  1426  1418    1
   547  2322  2312   ar
   548  2322  3676   ar
   549    57    47   ar
   550    57  1411   ar
   551  1416  1406   ar
   552  1416  2770   ar
   553  2775  2765    1
   554  3681  3671    1
   555   963   953   ar
   556   963  2317   ar
   557  1869  1859   ar
   558  1869  3223   ar
   559   510   500   ar
   560   510  1864   ar
   561  3228  3218    1
   562  2303  2359    1
   563  3209  3265    1
   564   944  1000    1
   565   491   547    1
   566  1397  1453    1
   567    38    94    1
   568  1850  1906    1
   569  2756  2812    1
   570  3662  3718    1
   571   503   508   ar
   572   956   961    1
   573  1409  1414   ar
   574  3674  3679    1
   575  2768  2773   ar
   576  1862  1867   ar
   577  3221  3226   ar
   578  2315  2320    1
   579    50    55   ar
   580  2765  2769    1
   581   500   504   ar
   582  1859  1863   ar
   583   953   957   ar
   584    47    51   ar
   585  1406  1410   ar
   586  3671  3675    1
   587  2312  2316   ar
   588  3218  3222    1
   589   485   544    1
   590  2750  2809    1
   591    32    91    1
   592  3203  3262    1
   593  2297  2356    1
   594  1391  1450    1
   595   938   997    1
   596  3656  3715    1
   597  1844  1903    1
   598   482   505    1
   599  1841  1864    1
   600   935   958    1
   601    29    52    1
   602  2747  2770    1
   603  1388  1411    1
   604  3653  3676    1
   605  2294  2317    1
   606  3200  3223    1
   607  2276  2342    1
   608  3635  3701    1
   609  2729  2795    1
   610    11    77    1
   611  3182  3248    1
   612  1370  1436    1
   613   464   530    1
   614   917   983    1
   615  1823  1889    1
   616   514   530   ar
   617   514   536   ar
   618  1420  1436   ar
   619  1420  1442   ar
   620  2779  2795    1
   621  2779  2801    1
   622  1873  1889   ar
   623  1873  1895   ar
   624  3232  3248    1
   625  3232  3254    1
   626    61    77   ar
   627    61    83   ar
   628  3685  3701    1
   629  3685  3707    1
   630   967   983    1
   631   967   989    1
   632  2326  2342    1
   633  2326  2348    1
   634  3189  3256    1
   635  3642  3709    1
   636  1377  1444    1
   637    18    85    1
   638  1830  1897    1
   639   924   991    1
   640  2283  2350    1
   641  2736  2803    1
   642   471   538    1
   643  3683  3709   ar
   644  3683  3699   ar
   645    59    85   ar
   646    59    75   ar
   647  1418  1444   ar
   648  1418  1434   ar
   649  3230  3256   ar
   650  3230  3246   ar
   651  1871  1897   ar
   652  1871  1887   ar
   653   512   538   ar
   654   512   528   ar
   655  2324  2350   ar
   656  2324  2340   ar
   657  2777  2803   ar
   658  2777  2793   ar
   659   965   991   ar
   660   965   981   ar
   661   931   962    1
   662  2290  2321    1
   663  3196  3227    1
   664  3649  3680    1
   665    25    56    1
   666  2743  2774    1
   667   478   509    1
   668  1837  1868    1
   669  1384  1415    1
   670    94    37    1
   671    94    83    1
   672  2359  2302    1
   673  2359  2348    1
   674  3265  3208    1
   675  3265  3254    1
   676  1000   943    1
   677  1000   989    1
   678  1453  1396    1
   679  1453  1442    1
   680  1906  1849    1
   681  1906  1895    1
   682   547   490    1
   683   547   536    1
   684  2812  2755    1
   685  2812  2801    1
   686  3718  3661    1
   687  3718  3707    1
   688  3223  3219   ar
   689  1864  1860   ar
   690  2770  2766   ar
   691   505   501    1
   692    52    48    1
   693  2317  2313   ar
   694  1411  1407   ar
   695   958   954    1
   696  3676  3672   ar
   697   530  2349   ar
   698  1889  3708   ar
   699    77  1896   ar
   700  1436  3255   ar
   701    85    76   ar
   702  2350  2341   ar
   703   991   982   ar
   704   538   529   ar
   705  1444  1435   ar
   706  3709  3700   ar
   707  1897  1888   ar
   708  2803  2794   ar
   709  3256  3247   ar
   710  2774  2767    1
   711   962   955   ar
   712  2321  2314   ar
   713  1868  1861   ar
   714    56    49    1
   715   509   502   ar
   716  3227  3220   ar
   717  1415  1408    1
   718  3680  3673   ar
   719  3715  3655    1
   720  3715  3699    1
   721  2809  2749    1
   722  2809  2793    1
   723  3262  3202    1
   724  3262  3246    1
   725  1450  1390    1
   726  1450  1434    1
   727    91    31    1
   728    91    75    1
   729  1903  1843    1
   730  1903  1887    1
   731   997   937    1
   732   997   981    1
   733   544   484    1
   734   544   528    1
   735  2356  2296    1
   736  2356  2340    1
   737    83  1890   ar
   738  1442  3249   ar
   739  1895  3702   ar
   740   536  2343   ar
   741  2340  2351   ar
   742   528   539   ar
   743    75    86   ar
   744  3246  3257   ar
   745   981   992   ar
   746  1434  1445   ar
   747  1887  1898   ar
   748  3699  3710   ar
   749  2793  2804   ar
   750  3700  3633    1
   751  3700  3684   ar
   752   529   462    1
   753   529   513   ar
   754  2341  2274    1
   755  2341  2325   ar
   756  3247  3180    1
   757  3247  3231   ar
   758    76     9    1
   759    76    60   ar
   760  2794  2727    1
   761  2794  2778   ar
   762  1888  1821    1
   763  1888  1872   ar
   764   982   915    1
   765   982   966   ar
   766  1435  1368    1
   767  1435  1419   ar
   768  1399  1454    1
   769   493   548    1
   770  3664  3719    1
   771   946  1001    1
   772  3211  3266    1
   773  2305  2360    1
   774    40    95    1
   775  2758  2813    1
   776  1852  1907    1
   777   537   473    1
   778   537   515    1
   779  2349  2285    1
   780  2349  2327   ar
   781    84    20    1
   782    84    62    1
   783  1896  1832    1
   784  1896  1874   ar
   785  3708  3644    1
   786  3708  3686   ar
   787  3255  3191    1
   788  3255  3233   ar
   789  1443  1379    1
   790  1443  1421    1
   791   990   926    1
   792   990   968    1
   793  2802  2738    1
   794  2802  2780    1
   795    55    26    1
   796    55   506   ar
   797  1414  1385    1
   798  1414  1865   ar
   799  3226  3197    1
   800  3226  3677   ar
   801  1867  1838    1
   802  1867  2318   ar
   803   508   479    1
   804   508   959   ar
   805  2320  2291    1
   806  3679  3650    1
   807  2773  2744    1
   808  2773  3224   ar
   809   961   932    1
   810  3702  3686   ar
   811  3702  3634    1
   812  1890  1874   ar
   813  1890  1822    1
   814  2343  2327   ar
   815  2343  2275    1
   816   531   515    1
   817   531   463    1
   818   984   968    1
   819   984   916    1
   820    78    62    1
   821    78    10    1
   822  1437  1421    1
   823  1437  1369    1
   824  2796  2780    1
   825  2796  2728    1
   826  3249  3233   ar
   827  3249  3181    1
   828   539   513   ar
   829   539   472    1
   830   992   966   ar
   831   992   925    1
   832  2351  2325   ar
   833  2351  2284    1
   834  1445  1419   ar
   835  1445  1378    1
   836  3710  3684   ar
   837  3710  3643    1
   838  3257  3231   ar
   839  3257  3190    1
   840  1898  1872   ar
   841  1898  1831    1
   842    86    60   ar
   843    86    19    1
   844  2804  2778   ar
   845  2804  2737    1
   846  1410  1454    1
   847  1410  2776   ar
   848   957  1001    1
   849   957  2323   ar
   850    51    95    1
   851    51  1417   ar
   852  3675  3719    1
   853   504   548    1
   854   504  1870   ar
   855  2769  2813    1
   856  2316  2360    1
   857  2316  3682   ar
   858  1863  1907    1
   859  1863  3229   ar
   860  3222  3266    1
   861  2778  2786    1
   862  1419  1427    1
   863   513   521    1
   864  2325  2333    1
   865    60    68    1
   866  3684  3692    1
   867  1872  1880    1
   868  3231  3239    1
   869   966   974    1
   870  1874  1882    1
   871  2327  2335    1
   872  3233  3241    1
   873   515   523    2
   874  1421  1429    2
   875    62    70    2
   876  2780  2788    2
   877  3686  3694    1
   878   968   976    2
   879  2813  2757    1
   880  3266  3210    1
   881    95    39    1
   882  1454  1398    1
   883  2360  2304    1
   884  3719  3663    1
   885  1907  1851    1
   886   548   492    1
   887  1001   945    1
   888  2766  2776   ar
   889  2766  2762    1
   890   954   964    1
   891   954   950    2
   892    48    58    1
   893    48    44    2
   894  2313  2323   ar
   895  2313  2309    1
   896   501   511    1
   897   501   497    2
   898  1860  1870   ar
   899  1860  1856    1
   900  3672  3682   ar
   901  3672  3668    1
   902  3219  3229   ar
   903  3219  3215    1
   904  1407  1417   ar
   905  1407  1403    1
   906  1861  1865   ar
   907  1861  1857    1
   908   502   506   ar
   909   502   498    1
   910   955   959   ar
   911   955   951    1
   912  1408  1412    1
   913  1408  1404    2
   914  3220  3224   ar
   915  3220  3216    1
   916  2314  2318   ar
   917  2314  2310    1
   918  2767  2771    1
   919  2767  2763    2
   920    49    53    1
   921    49    45    2
   922  3673  3677   ar
   923  3673  3669    1
   924  1427  1473    1
   925  1427  1483    1
   926   974  1020    1
   927   974  1030    1
   928   521   567    1
   929   521   577    1
   930  3239  3285    1
   931  3239  3295    1
   932  2333  2379    1
   933  2333  2389    1
   934    68   114    1
   935    68   124    1
   936  3692  3738    1
   937  3692  3748    1
   938  2786  2832    1
   939  2786  2842    1
   940  1880  1926    1
   941  1880  1936    1
   942    58    27    1
   943   964   933    1
   944  1417  1386    1
   945  3229  3198    1
   946  1870  1839    1
   947   511   480    1
   948  2776  2745    1
   949  2323  2292    1
   950  3682  3651    1
   951  3224  3267    1
   952   506   549    1
   953  1412  1455    1
   954  2771  2814    1
   955  2318  2361    1
   956  3677  3720    1
   957   959  1002    1
   958    53    96    1
   959  1865  1908    1
   960   523   575    1
   961   523   569    1
   962  1429  1481    1
   963  1429  1475    1
   964    70   122    1
   965    70   116    1
   966   976  1028    1
   967   976  1022    1
   968  1882  1934    1
   969  1882  1928    1
   970  2335  2387    1
   971  2335  2381    1
   972  3694  3746    1
   973  3694  3740    1
   974  2788  2840    1
   975  2788  2834    1
   976  3241  3293    1
   977  3241  3287    1
   978  2832  2725    1
   979  3738  3631    1
   980  3285  3178    1
   981  1020   913    1
   982  1473  1366    1
   983   567   460    1
   984   114     7    1
   985  1926  1819    1
   986  2379  2272    1
   987  2816  2762    1
   988  2816  2725    1
   989  1457  1403    1
   990  1457  1366    1
   991   551   497    1
   992   551   460    1
   993  3722  3668    1
   994  3722  3631    1
   995  2363  2309    1
   996  2363  2272    1
   997    98    44    1
   998    98     7    1
   999  3269  3215    1
  1000  3269  3178    1
  1001  1910  1856    1
  1002  1910  1819    1
  1003  1004   950    1
  1004  1004   913    1
  1005  1030   909    1
  1006  1936  1815    1
  1007  2842  2721    1
  1008  1483  1362    1
  1009  2389  2268    1
  1010   577   456    1
  1011  3295  3174    1
  1012   124     3    1
  1013  3748  3627    1
  1014  1008   951    1
  1015  1008   909    1
  1016  2367  2310    1
  1017  2367  2268    1
  1018  2820  2763    1
  1019  2820  2721    1
  1020  1461  1404    1
  1021  1461  1362    1
  1022   555   498    1
  1023   555   456    1
  1024   102    45    1
  1025   102     3    1
  1026  3273  3216    1
  1027  3273  3174    1
  1028  1914  1857    1
  1029  1914  1815    1
  1030  3726  3669    1
  1031  3726  3627    1
  1032  1028   909    1
  1033  2840  2721    1
  1034  1481  1362    1
  1035  3293  3174    1
  1036   122     3    1
  1037  2387  2268    1
  1038  1934  1815    1
  1039   575   456    1
  1040  3746  3627    1
  1041  1928  1819    1
  1042   569   460    1
  1043  1022   913    1
  1044  3740  3631    1
  1045  3287  3178    1
  1046  1475  1366    1
  1047  2834  2725    1
  1048   116     7    1
  1049  2381  2272    1
  1050  1856  1916    1
  1051   950  1010    1
  1052    44   104    1
  1053  2309  2369    1
  1054   497   557    1
  1055  3668  3728    1
  1056  3215  3275    1
  1057  1403  1463    1
  1058  2762  2822    1
  1059  2763  2817    1
  1060  1404  1458    1
  1061  2310  2364    1
  1062  3216  3270    1
  1063  1857  1911    1
  1064   951  1005    1
  1065   498   552    1
  1066  3669  3723    1
  1067    45    99    1
  1068   145   140    1
  1069  3316  3311    1
  1070  3769  3764    1
  1071  1051  1046    1
  1072   598   593    1
  1073  2410  2405    1
  1074  1504  1499    1
  1075  1957  1952    1
  1076  2863  2858    1
  1077  1455  1400    1
  1078  1455  1401    1
  1079  3267  3212    1
  1080  3267  3213    1
  1081  2814  2759    1
  1082  2814  2760    1
  1083  1002   947    1
  1084  1002   948    1
  1085   549   494    1
  1086   549   495    1
  1087  2361  2306    1
  1088  2361  2307    1
  1089    96    41    1
  1090    96    42    1
  1091  1908  1853    1
  1092  1908  1854    1
  1093  3720  3665    1
  1094  3720  3666    1
  1095   136   140    1
  1096  3307  3311    1
  1097  1495  1499    1
  1098  2401  2405    1
  1099  1948  1952    1
  1100  1042  1046    1
  1101  2854  2858    1
  1102   589   593    1
  1103  3760  3764    1
  1104  2272  2395    1
  1105  2272  2371    1
  1106  2272  2373    1
  1107  3178  3301    1
  1108  3178  3277    1
  1109  3178  3279    1
  1110     7   130    1
  1111     7   106    1
  1112     7   108    1
  1113  1366  1489    1
  1114  1366  1465    1
  1115  1366  1467    1
  1116  3631  3754    1
  1117  3631  3730    1
  1118  3631  3732    1
  1119   460   583    1
  1120   460   559    1
  1121   460   561    1
  1122   913  1036    1
  1123   913  1012    1
  1124   913  1014    1
  1125  1819  1942    1
  1126  1819  1918    1
  1127  1819  1920    1
  1128  2725  2848    1
  1129  2725  2824    1
  1130  2725  2826    1
  1131  2268  2374    1
  1132  2268  2376    1
  1133   456   562    1
  1134   456   564    1
  1135  1815  1921    1
  1136  1815  1923    1
  1137   909  1015    1
  1138   909  1017    1
  1139  2721  2827    1
  1140  2721  2829    1
  1141     3   109    1
  1142     3   111    1
  1143  3174  3280    1
  1144  3174  3282    1
  1145  3627  3733    1
  1146  3627  3735    1
  1147  1362  1468    1
  1148  1362  1470    1
  1149   148   147    1
  1150  3772  3771    1
  1151   601   600    1
  1152  1054  1053    1
  1153  2866  2865    1
  1154  2413  2412    1
  1155  1507  1506    1
  1156  1960  1959    1
  1157  3319  3318    1
  1158  1010   907    1
  1159   104     1    1
  1160  2822  2719    1
  1161   557   454    1
  1162  2369  2266    1
  1163  1916  1813    1
  1164  3275  3172    1
  1165  1463  1360    1
  1166  3728  3625    1
  1167  1911  1818    1
  1168  2364  2271    1
  1169  3723  3630    1
  1170    99     6    1
  1171  2817  2724    1
  1172  1005   912    1
  1173   552   459    1
  1174  1458  1365    1
  1175  3270  3177    1
  1176   593   600    1
  1177   593   594    1
  1178  2858  2865    1
  1179  2858  2859    1
  1180  1046  1053    1
  1181  1046  1047    1
  1182  2405  2412    1
  1183  2405  2406    1
  1184  1499  1506    1
  1185  1499  1500    1
  1186   140   147    1
  1187   140   141    1
  1188  3311  3318    1
  1189  3311  3312    1
  1190  3764  3771    1
  1191  3764  3765    1
  1192  1952  1959    1
  1193  1952  1953    1
  1194   488   546    1
  1195  2753  2811    1
  1196  3659  3717    1
  1197    35    93    1
  1198  1847  1905    1
  1199  2300  2358    1
  1200  3206  3264    1
  1201  1394  1452    1
  1202   941   999    1
  1203  2852  2855    1
  1204   134   137    1
  1205  2399  2402    1
  1206  1493  1496    1
  1207  1946  1949    1
  1208  1040  1043    1
  1209  3305  3308    1
  1210  3758  3761    1
  1211   587   590    1
  1212  1489  1382    1
  1213   583   476    1
  1214  1942  1835    1
  1215  2395  2288    1
  1216   130    23    1
  1217  2848  2741    1
  1218  3754  3647    1
  1219  1036   929    1
  1220  3301  3194    1
  1221  1959  1963    1
  1222  1959  1955    1
  1223  3771  3775    1
  1224  3771  3767    1
  1225   600   604    1
  1226   600   596    1
  1227  3318  3322    1
  1228  3318  3314    1
  1229  1506  1510    1
  1230  1506  1502    1
  1231  2865  2869    1
  1232  2865  2861    1
  1233  2412  2416    1
  1234  2412  2408    1
  1235   147   151    1
  1236   147   143    1
  1237  1053  1057    1
  1238  1053  1049    1
  1239  3730  3625    1
  1240   559   454    1
  1241  1465  1360    1
  1242  2371  2266    1
  1243  3277  3172    1
  1244  2824  2719    1
  1245   106     1    1
  1246  1918  1813    1
  1247  1012   907    1
  1248  1468  1365    1
  1249   109     6    1
  1250  1015   912    1
  1251  2374  2271    1
  1252   562   459    1
  1253  3280  3177    1
  1254  1921  1818    1
  1255  2827  2724    1
  1256  3733  3630    1
  1257  1467  1360    1
  1258  2373  2266    1
  1259  1014   907    1
  1260   108     1    1
  1261  3279  3172    1
  1262  3732  3625    1
  1263   561   454    1
  1264  2826  2719    1
  1265  1920  1813    1
  1266   942   999    1
  1267   489   546    1
  1268  1848  1905    1
  1269  2301  2358    1
  1270    36    93    1
  1271  2754  2811    1
  1272  1395  1452    1
  1273  3660  3717    1
  1274  3207  3264    1
  1275   999   993    1
  1276  2811  2805    1
  1277  3264  3258    1
  1278    93    87    1
  1279  1452  1446    1
  1280   546   540    1
  1281  1905  1899    1
  1282  2358  2352    1
  1283  3717  3711    1
  1284   564   459    1
  1285  1923  1818    1
  1286  3735  3630    1
  1287  3282  3177    1
  1288  2829  2724    1
  1289  2376  2271    1
  1290  1470  1365    1
  1291  1017   912    1
  1292   111     6    1
  1293  2855  2861    1
  1294  2855  2853    2
  1295  3761  3767    1
  1296  3761  3759    2
  1297  3308  3314    1
  1298  3308  3306    2
  1299   137   143    1
  1300   137   135    2
  1301  1043  1049    1
  1302  1043  1041    2
  1303  2402  2408    1
  1304  2402  2400    2
  1305  1949  1955    1
  1306  1949  1947    2
  1307   590   596    1
  1308   590   588    2
  1309  1496  1502    1
  1310  1496  1494    2
  1311  2732  2800    1
  1312  2279  2347    1
  1313  3638  3706    1
  1314  3185  3253    1
  1315   467   535    1
  1316  1373  1441    1
  1317    14    82    1
  1318  1826  1894    1
  1319   920   988    1
  1320  2734  2807    1
  1321  3187  3260    1
  1322  3640  3713    1
  1323  1375  1448    1
  1324  1828  1901    1
  1325   469   542    1
  1326    16    89    1
  1327   922   995    1
  1328  2281  2354    1
  1329   918   986    1
  1330  1371  1439    1
  1331  3183  3251    1
  1332  1824  1892    1
  1333    12    80    1
  1334  3636  3704    1
  1335   465   533    1
  1336  2277  2345    1
  1337  2730  2798    1
  1338   596   599    1
  1339  1955  1958    1
  1340  1502  1505    1
  1341  2861  2864    1
  1342  3314  3317    1
  1343  3767  3770    1
  1344  1049  1052    1
  1345   143   146    1
  1346  2408  2411    1
  1347  1813  1938    1
  1348  1813  1940    1
  1349     1   126    1
  1350     1   128    1
  1351  1360  1485    1
  1352  1360  1487    1
  1353  2719  2844    1
  1354  2719  2846    1
  1355  3172  3297    1
  1356  3172  3299    1
  1357   907  1032    1
  1358   907  1034    1
  1359  2266  2391    1
  1360  2266  2393    1
  1361   454   579    1
  1362   454   581    1
  1363  3625  3750    1
  1364  3625  3752    1
  1365  2271  2384    1
  1366  2271  2382    1
  1367  2271  2547    1
  1368   912  1025    1
  1369   912  1023    1
  1370   912  1188    1
  1371   459   572    1
  1372   459   570    1
  1373   459   735    1
  1374     6   119    1
  1375     6   117    1
  1376     6   282    1
  1377  3630  3743    1
  1378  3630  3741    1
  1379  3630  3906    1
  1380  2724  2837    1
  1381  2724  2835    1
  1382  2724  3000    1
  1383  3177  3290    1
  1384  3177  3288    1
  1385  3177  3453    1
  1386  1365  1478    1
  1387  1365  1476    1
  1388  1365  1641    1
  1389  1818  1931    1
  1390  1818  1929    1
  1391  1818  2094    1
  1392  1894   540   ar
  1393  1894  2029   ar
  1394   535   670    1
  1395  1441    87   ar
  1396  1441  1576   ar
  1397   988  1123    1
  1398  3253  1899   ar
  1399  3253  3388   ar
  1400  3706  2352   ar
  1401  3706  3841   ar
  1402  2800  1446   ar
  1403  2800  2935   ar
  1404  2347   993   ar
  1405  2347  2482   ar
  1406    82   217    1
  1407  1899  2028   ar
  1408  3711  3840    1
  1409  1446  1575   ar
  1410    87   216   ar
  1411   540   669   ar
  1412   993  1122   ar
  1413  3258  3387    1
  1414  2805  2934    1
  1415  2352  2481   ar
  1416  2807  2932    1
  1417  3260  2798   ar
  1418  3260  3385   ar
  1419  2354  1892   ar
  1420  2354  2479   ar
  1421   995   533   ar
  1422   995  1120   ar
  1423   542    80   ar
  1424   542   667   ar
  1425  1901  1439   ar
  1426  1901  2026   ar
  1427  1448  1573    1
  1428    89   214    1
  1429  3713  3251   ar
  1430  3713  3838   ar
  1431  2384  2489    1
  1432   119   224    1
  1433  1478  1583    1
  1434  3290  3395    1
  1435  3743  3848    1
  1436   572   677    1
  1437  1025  1130    1
  1438  1931  2036    1
  1439  2837  2942    1
  1440   579   678    1
  1441  2391  2490    1
  1442  1032  1131    1
  1443   126   225    1
  1444  2844  2943    1
  1445  3297  3396    1
  1446  3750  3849    1
  1447  1938  2037    1
  1448  1485  1584    1
  1449  2798  2933   ar
  1450  3251  3386   ar
  1451  2345  2480    1
  1452  1892  2027   ar
  1453  1439  1574   ar
  1454   986  1121    1
  1455  3704  3839    1
  1456    80   215   ar
  1457   533   668   ar
  1458   588   586    1
  1459   588   592    1
  1460  2853  2851    1
  1461  2853  2857    1
  1462  1494  1492    1
  1463  1494  1498    1
  1464  2400  2398    1
  1465  2400  2404    1
  1466  1947  1945    1
  1467  1947  1951    1
  1468  1041  1039    1
  1469  1041  1045    1
  1470  3759  3757    1
  1471  3759  3763    1
  1472   135   133    1
  1473   135   139    1
  1474  3306  3304    1
  1475  3306  3310    1
  1476  1487  1582    1
  1477  1940  2035    1
  1478  3299  3394    1
  1479   128   223    1
  1480  3752  3847    1
  1481  1034  1129    1
  1482   581   676    1
  1483  2393  2488    1
  1484  2846  2941    1
  1485  1476  1581    1
  1486  1023  1128    1
  1487  3741  3846    1
  1488   570   675    1
  1489  1929  2034    1
  1490  3288  3393    1
  1491  2835  2940    1
  1492   117   222    1
  1493  2382  2487    1
  1494  1052  1045    1
  1495  1052  1056    1
  1496  2864  2857    1
  1497  2864  2868    1
  1498  3770  3763    1
  1499  3770  3774    1
  1500  2411  2404    1
  1501  2411  2415    1
  1502  3317  3310    1
  1503  3317  3321    1
  1504   146   139    1
  1505   146   150    1
  1506  1505  1498    1
  1507  1505  1509    1
  1508   599   592    1
  1509   599   603    1
  1510  1958  1951    1
  1511  1958  1962    1
  1512  3796  3907    1
  1513   625   736    1
  1514   172   283    1
  1515  3343  3454    1
  1516  2437  2548    1
  1517  1078  1189    1
  1518  2890  3001    1
  1519  1984  2095    1
  1520  1531  1642    1
  1521   139   142    1
  1522   592   595    1
  1523  3310  3313    1
  1524  1498  1501    1
  1525  2857  2860    1
  1526  2404  2407    1
  1527  1951  1954    1
  1528  1045  1048    1
  1529  3763  3766    1
  1530  2935  2943    1
  1531  2935  2957   ar
  1532   217   225    2
  1533   217   239    1
  1534  1123  1131    2
  1535  1123  1145    1
  1536  2482  2490    1
  1537  2482  2504   ar
  1538  3841  3849    1
  1539  3841  3863   ar
  1540   670   678    2
  1541   670   692    1
  1542  2029  2037    1
  1543  2029  2051   ar
  1544  3388  3396    1
  1545  3388  3410   ar
  1546  1576  1584    1
  1547  1576  1598   ar
  1548  1575  1583    1
  1549  1575  1591   ar
  1550  1122  1130    1
  1551  1122  1138   ar
  1552   669   677    1
  1553   669   685   ar
  1554  2934  2942    2
  1555  2934  2950    1
  1556  3387  3395    2
  1557  3387  3403    1
  1558   216   224    1
  1559   216   232   ar
  1560  3840  3848    2
  1561  3840  3856    1
  1562  2028  2036    1
  1563  2028  2044   ar
  1564  2481  2489    1
  1565  2481  2497   ar
  1566  1130  1182    1
  1567  2489  2541    1
  1568  2942  2994    1
  1569   677   729    1
  1570  3395  3447    1
  1571  1583  1635    1
  1572  3848  3900    1
  1573  2036  2088    1
  1574   224   276    1
  1575  1131  1177    1
  1576  3849  3895    1
  1577  1584  1630    1
  1578  2490  2536    1
  1579  2037  2083    1
  1580   678   724    1
  1581  2943  2989    1
  1582   225   271    1
  1583  3396  3442    1
  1584  3454  3327    1
  1585  1642  1515    1
  1586  1189  1062    1
  1587  2095  1968    1
  1588   736   609    1
  1589  3907  3780    1
  1590   283   156    1
  1591  3001  2874    1
  1592  2548  2421    1
  1593  2094  1985    1
  1594  2547  2438    1
  1595  1641  1532    1
  1596  3906  3797    1
  1597  1188  1079    1
  1598   282   173    1
  1599   735   626    1
  1600  3453  3344    1
  1601  3000  2891    1
  1602   676   668    1
  1603   676   722    1
  1604  1129  1121    2
  1605  1129  1175    1
  1606  3847  3839    2
  1607  3847  3893    1
  1608  3394  3386    1
  1609  3394  3440    1
  1610  1582  1574    1
  1611  1582  1628    1
  1612  2488  2480    2
  1613  2488  2534    1
  1614  2941  2933    1
  1615  2941  2987    1
  1616   223   215    1
  1617   223   269    1
  1618  2035  2027    1
  1619  2035  2081    1
  1620  2932  2940    2
  1621  2932  2948    1
  1622  1120  1128    1
  1623  1120  1136   ar
  1624   214   222    2
  1625   214   230    1
  1626   667   675    1
  1627   667   683   ar
  1628  2026  2034    1
  1629  2026  2042   ar
  1630  1573  1581    2
  1631  1573  1589    1
  1632  3838  3846    1
  1633  3838  3854   ar
  1634  2479  2487    1
  1635  2479  2495   ar
  1636  3385  3393    1
  1637  3385  3401   ar
  1638  3846  3902    1
  1639  2034  2090    1
  1640  1128  1184    1
  1641  1581  1637    1
  1642   222   278    1
  1643  3393  3449    1
  1644   675   731    1
  1645  2487  2543    1
  1646  2940  2996    1
  1647  2933  2959   ar
  1648  2480  2506    1
  1649   668   694   ar
  1650  3386  3412   ar
  1651  1121  1147    1
  1652  2027  2053   ar
  1653   215   241   ar
  1654  3839  3865    1
  1655  1574  1600   ar
  1656  3900  3777    1
  1657  1182  1059    1
  1658   729   606    1
  1659  2541  2418    1
  1660  2088  1965    1
  1661  1635  1512    1
  1662  3447  3324    1
  1663  2994  2871    1
  1664   276   153    1
  1665   271   156    1
  1666  3895  3780    1
  1667  2083  1968    1
  1668  2536  2421    1
  1669  2989  2874    1
  1670  1177  1062    1
  1671  1630  1515    1
  1672   724   609    1
  1673  3442  3327    1
  1674  2051   685   ar
  1675  2051  1980    1
  1676  2957  1591   ar
  1677  2957  2886    1
  1678  1598   232   ar
  1679  1598  1527    1
  1680  3410  2044   ar
  1681  3410  3339    1
  1682  2504  1138   ar
  1683  2504  2433    1
  1684  3863  2497   ar
  1685  3863  3792    1
  1686  1145  1074    1
  1687   239   168    1
  1688   692   621    1
  1689  1175  1062    1
  1690  2987  2874    1
  1691  2534  2421    1
  1692  2081  1968    1
  1693   269   156    1
  1694  3893  3780    1
  1695   722   609    1
  1696  1628  1515    1
  1697  3440  3327    1
  1698  3856  3790    1
  1699  2044  1978    1
  1700  2497  2431    1
  1701  1591  1525    1
  1702  3403  3337    1
  1703   232   166    1
  1704  1138  1072    1
  1705   685   619    1
  1706  2950  2884    1
  1707  1637  1512    1
  1708  2090  1965    1
  1709  1184  1059    1
  1710  3449  3324    1
  1711  2996  2871    1
  1712  2543  2418    1
  1713   278   153    1
  1714   731   606    1
  1715  3902  3777    1
  1716  3401  2959   ar
  1717  3401  3335    1
  1718  1136   694   ar
  1719  1136  1070    1
  1720  2948  2882    1
  1721  3854  3412   ar
  1722  3854  3788    1
  1723  2042  1600   ar
  1724  2042  1976    1
  1725   683   241   ar
  1726   683   617    1
  1727  2495  2053   ar
  1728  2495  2429    1
  1729   230   164    1
  1730  1589  1523    1
  1731   595   597    1
  1732   595   591    1
  1733   595   602    1
  1734  2860  2862    1
  1735  2860  2856    1
  1736  2860  2867    1
  1737  1501  1503    1
  1738  1501  1497    1
  1739  1501  1508    1
  1740   142   144    1
  1741   142   138    1
  1742   142   149    1
  1743  1954  1956    1
  1744  1954  1950    1
  1745  1954  1961    1
  1746  1048  1050    1
  1747  1048  1044    1
  1748  1048  1055    1
  1749  3313  3315    1
  1750  3313  3309    1
  1751  3313  3320    1
  1752  3766  3768    1
  1753  3766  3762    1
  1754  3766  3773    1
  1755  2407  2409    1
  1756  2407  2403    1
  1757  2407  2414    1
  1758   694   696    1
  1759  2053  2055    1
  1760  2506  2508    2
  1761  3412  3414    1
  1762  1600  1602    1
  1763  3865  3867    2
  1764  2959  2961    1
  1765   241   243    1
  1766  1147  1149    2
  1767  1968  2075    1
  1768  1968  2073    1
  1769  1968  2063    1
  1770  3780  3887    1
  1771  3780  3885    1
  1772  3780  3875    1
  1773  2874  2981    1
  1774  2874  2979    1
  1775  2874  2969    1
  1776  3327  3434    1
  1777  3327  3432    1
  1778  3327  3422    1
  1779  1515  1622    1
  1780  1515  1620    1
  1781  1515  1610    1
  1782   609   716    1
  1783   609   714    1
  1784   609   704    1
  1785  2421  2528    1
  1786  2421  2526    1
  1787  2421  2516    1
  1788   156   263    1
  1789   156   261    1
  1790   156   251    1
  1791  1062  1169    1
  1792  1062  1167    1
  1793  1062  1157    1
  1794  2418  2523    1
  1795  2418  2521    1
  1796  2418  2519    1
  1797   153   258    1
  1798   153   256    1
  1799   153   254    1
  1800  1965  2070    1
  1801  1965  2068    1
  1802  1965  2066    1
  1803   606   711    1
  1804   606   709    1
  1805   606   707    1
  1806  1512  1617    1
  1807  1512  1615    1
  1808  1512  1613    1
  1809  2871  2976    1
  1810  2871  2974    1
  1811  2871  2972    1
  1812  3324  3429    1
  1813  3324  3427    1
  1814  3324  3425    1
  1815  3777  3882    1
  1816  3777  3880    1
  1817  3777  3878    1
  1818  1059  1164    1
  1819  1059  1162    1
  1820  1059  1160    1
  1821  2893  2998    1
  1822  1534  1639    1
  1823  1081  1186    1
  1824   175   280    1
  1825  1987  2092    1
  1826  3799  3904    1
  1827  3346  3451    1
  1828  2440  2545    1
  1829   628   733    1
  1830  2961  2902    1
  1831  2961  3356    1
  1832  2508  2449    1
  1833  1149  1090    1
  1834  2055  1996    1
  1835  2055  2450    1
  1836   243   184    1
  1837   243   638    1
  1838   696   637    1
  1839   696  1091    1
  1840  3867  3808    1
  1841  1602  1543    1
  1842  1602  1997    1
  1843  3414  3355    1
  1844  3414  3809    1
  1845  2981  2873    1
  1846  1622  1514    1
  1847  3887  3779    1
  1848   263   155    1
  1849  1169  1061    1
  1850  2075  1967    1
  1851  3434  3326    1
  1852   716   608    1
  1853  2528  2420    1
  1854  2523  2424    1
  1855   711   612    1
  1856  1617  1518    1
  1857  3882  3783    1
  1858  3429  3330    1
  1859  2976  2877    1
  1860  2070  1971    1
  1861  1164  1065    1
  1862   258   159    1
  1863  1615  1518    1
  1864  2068  1971    1
  1865  2521  2424    1
  1866  2974  2877    1
  1867   256   159    1
  1868  3427  3330    1
  1869  1162  1065    1
  1870  3880  3783    1
  1871   709   612    1
  1872  3432  3326    1
  1873  2526  2420    1
  1874  3885  3779    1
  1875   261   155    1
  1876  2979  2873    1
  1877  2073  1967    1
  1878   714   608    1
  1879  1167  1061    1
  1880  1620  1514    1
  1881  2998  2877    1
  1882  2545  2424    1
  1883  3451  3330    1
  1884   280   159    1
  1885  1186  1065    1
  1886   733   612    1
  1887  3904  3783    1
  1888  2092  1971    1
  1889  1639  1518    1
  1890  2063  2009    1
  1891  3422  3368    1
  1892   704   650    1
  1893  1610  1556    1
  1894  1157  1103    1
  1895  2969  2915    1
  1896  3875  3821    1
  1897  2516  2462    1
  1898   251   197    1
  1899  3878  3818    1
  1900  2519  2459    1
  1901   254   194    1
  1902  1160  1100    1
  1903  2972  2912    1
  1904   707   647    1
  1905  3425  3365    1
  1906  1613  1553    1
  1907  2066  2006    1
  1908  3783  3890    1
  1909  3783  3872    1
  1910  3783  3888    1
  1911  2424  2531    1
  1912  2424  2513    1
  1913  2424  2529    1
  1914  2877  2984    1
  1915  2877  2966    1
  1916  2877  2982    1
  1917  1065  1172    1
  1918  1065  1154    1
  1919  1065  1170    1
  1920  3330  3437    1
  1921  3330  3419    1
  1922  3330  3435    1
  1923  1518  1625    1
  1924  1518  1607    1
  1925  1518  1623    1
  1926  1971  2078    1
  1927  1971  2060    1
  1928  1971  2076    1
  1929   159   266    1
  1930   159   248    1
  1931   159   264    1
  1932   612   719    1
  1933   612   701    1
  1934   612   717    1
  1935   608   725    1
  1936   608   705    1
  1937   608   727    1
  1938  3326  3443    1
  1939  3326  3423    1
  1940  3326  3445    1
  1941  1061  1178    1
  1942  1061  1158    1
  1943  1061  1180    1
  1944  2420  2537    1
  1945  2420  2517    1
  1946  2420  2539    1
  1947  2873  2990    1
  1948  2873  2970    1
  1949  2873  2992    1
  1950  3779  3896    1
  1951  3779  3876    1
  1952  3779  3898    1
  1953  1514  1631    1
  1954  1514  1611    1
  1955  1514  1633    1
  1956  1967  2084    1
  1957  1967  2064    1
  1958  1967  2086    1
  1959   155   272    1
  1960   155   252    1
  1961   155   274    1
  1962   634   658    1
  1963   181   205    1
  1964  1540  1564    1
  1965  2446  2470    1
  1966  1993  2017    1
  1967  2899  2923    1
  1968  3352  3376    1
  1969  3805  3829    1
  1970  1087  1111    1
  1971   179   208    1
  1972  2897  2926    1
  1973   632   661    1
  1974  1085  1114    1
  1975  2444  2473    1
  1976  3803  3832    1
  1977  1991  2020    1
  1978  3350  3379    1
  1979  1538  1567    1
  1980  3368  3423    1
  1981  3368  3372    1
  1982  3821  3876    1
  1983  3821  3825    2
  1984   650   705    1
  1985   650   654    1
  1986  1556  1611    1
  1987  1556  1560    1
  1988   197   252    1
  1989   197   201    1
  1990  2915  2970    1
  1991  2915  2919    1
  1992  2462  2517    1
  1993  2462  2466    2
  1994  1103  1158    1
  1995  1103  1107    2
  1996  2009  2064    1
  1997  2009  2013    1
  1998  2459  2513    1
  1999  2459  2463    1
  2000   647   701    1
  2001   647   651    1
  2002  2912  2966    1
  2003  2912  2916    2
  2004  1100  1154    1
  2005  1100  1104    1
  2006   194   248    1
  2007   194   198    1
  2008  2006  2060    1
  2009  2006  2010    1
  2010  3365  3419    1
  2011  3365  3369    2
  2012  1553  1607    1
  2013  1553  1557    1
  2014  3818  3872    1
  2015  3818  3822    2
  2016  1178  1126    1
  2017  2990  2938    1
  2018  2084  2032    1
  2019  3443  3391    1
  2020  2537  2485    1
  2021   272   220    1
  2022  3896  3844    1
  2023   725   673    1
  2024  1631  1579    1
  2025  2984  2938    1
  2026  2078  2032    1
  2027  1625  1579    1
  2028  2531  2485    1
  2029   266   220    1
  2030  3890  3844    1
  2031   719   673    1
  2032  1172  1126    1
  2033  3437  3391    1
  2034  1180  1124    1
  2035   727   671    1
  2036   274   218    1
  2037  2539  2483    1
  2038  3898  3842    1
  2039  2992  2936    1
  2040  2086  2030    1
  2041  3445  3389    1
  2042  1633  1577    1
  2043   264   218    1
  2044  2982  2936    1
  2045   717   671    1
  2046  1623  1577    1
  2047  2076  2030    1
  2048  3435  3389    1
  2049  3888  3842    1
  2050  1170  1124    1
  2051  2529  2483    1
  2052   673   665    1
  2053  3391  3383    2
  2054  2032  2024    1
  2055  1579  1571    1
  2056  1126  1118    2
  2057  2938  2930    2
  2058   220   212    1
  2059  3844  3836    2
  2060  2485  2477    2
  2061  2923  2919   ar
  2062  2923  3378   ar
  2063  2017  2013   ar
  2064  2017  2472   ar
  2065  3376  3372   ar
  2066  3376  3831   ar
  2067  3829  3825    1
  2068  1111  1107    1
  2069  1564  1560   ar
  2070  1564  2019   ar
  2071  2470  2466    1
  2072   658   654   ar
  2073   658  1113   ar
  2074   205   201   ar
  2075   205   660   ar
  2076  2936  2928    1
  2077  3842  3834    1
  2078   218   210    1
  2079  1124  1116    1
  2080  2030  2022    1
  2081  1577  1569    1
  2082  2483  2475    1
  2083  3389  3381    1
  2084   671   663    1
  2085  1114  1104   ar
  2086  1114  2468   ar
  2087  2473  2463   ar
  2088  2473  3827   ar
  2089  3379  3369    1
  2090  2020  2010   ar
  2091  2020  3374   ar
  2092   661   651   ar
  2093   661  2015   ar
  2094  3832  3822    1
  2095  2926  2916    1
  2096   208   198   ar
  2097   208  1562   ar
  2098  1567  1557   ar
  2099  1567  2921   ar
  2100  2001  2057    1
  2101  2907  2963    1
  2102  1095  1151    1
  2103  2454  2510    1
  2104  3360  3416    1
  2105  1548  1604    1
  2106   642   698    1
  2107  3813  3869    1
  2108   189   245    1
  2109  2013  2018   ar
  2110  3372  3377   ar
  2111  2919  2924   ar
  2112  1107  1112    1
  2113   201   206   ar
  2114   654   659   ar
  2115  1560  1565   ar
  2116  2466  2471    1
  2117  3825  3830    1
  2118  2463  2467   ar
  2119  1557  1561   ar
  2120  3822  3826    1
  2121   198   202   ar
  2122  1104  1108   ar
  2123   651   655   ar
  2124  2010  2014   ar
  2125  3369  3373    1
  2126  2916  2920    1
  2127  2901  2960    1
  2128  2448  2507    1
  2129   636   695    1
  2130   183   242    1
  2131  1542  1601    1
  2132  1089  1148    1
  2133  3354  3413    1
  2134  3807  3866    1
  2135  1995  2054    1
  2136  2445  2468    1
  2137   180   203    1
  2138   633   656    1
  2139  3351  3374    1
  2140  3804  3827    1
  2141  2898  2921    1
  2142  1992  2015    1
  2143  1539  1562    1
  2144  1086  1109    1
  2145  1974  2040    1
  2146  1068  1134    1
  2147  2880  2946    1
  2148  3333  3399    1
  2149  1521  1587    1
  2150   615   681    1
  2151  2427  2493    1
  2152  3786  3852    1
  2153   162   228    1
  2154  3383  3399    1
  2155  3383  3405    1
  2156  3836  3852    1
  2157  3836  3858    1
  2158   212   228   ar
  2159   212   234   ar
  2160   665   681   ar
  2161   665   687   ar
  2162  2930  2946    1
  2163  2930  2952    1
  2164  1118  1134    1
  2165  1118  1140    1
  2166  2024  2040   ar
  2167  2024  2046   ar
  2168  2477  2493    1
  2169  2477  2499    1
  2170  1571  1587   ar
  2171  1571  1593   ar
  2172  3793  3860    1
  2173  1528  1595    1
  2174   169   236    1
  2175  2434  2501    1
  2176  1075  1142    1
  2177  1981  2048    1
  2178  3340  3407    1
  2179  2887  2954    1
  2180   622   689    1
  2181  3381  3407   ar
  2182  3381  3397   ar
  2183   663   689   ar
  2184   663   679   ar
  2185  3834  3860   ar
  2186  3834  3850   ar
  2187  2475  2501   ar
  2188  2475  2491   ar
  2189  1116  1142   ar
  2190  1116  1132   ar
  2191  2928  2954   ar
  2192  2928  2944   ar
  2193  1569  1595   ar
  2194  1569  1585   ar
  2195  2022  2048   ar
  2196  2022  2038   ar
  2197   210   236   ar
  2198   210   226   ar
  2199  2441  2472    1
  2200  1988  2019    1
  2201   176   207    1
  2202  3347  3378    1
  2203  3800  3831    1
  2204  2894  2925    1
  2205  1082  1113    1
  2206  1535  1566    1
  2207   629   660    1
  2208  3869  3812    1
  2209  3869  3858    1
  2210  2510  2453    1
  2211  2510  2499    1
  2212   245   188    1
  2213   245   234    1
  2214  2963  2906    1
  2215  2963  2952    1
  2216   698   641    1
  2217   698   687    1
  2218  2057  2000    1
  2219  2057  2046    1
  2220  1604  1547    1
  2221  1604  1593    1
  2222  3416  3359    1
  2223  3416  3405    1
  2224  1151  1094    1
  2225  1151  1140    1
  2226  2921  2917   ar
  2227  3374  3370   ar
  2228  2015  2011   ar
  2229  3827  3823   ar
  2230  2468  2464   ar
  2231  1562  1558   ar
  2232   656   652    1
  2233   203   199    1
  2234  1109  1105    1
  2235   228  2047   ar
  2236  1587  3406   ar
  2237   681  2500   ar
  2238  2040  3859   ar
  2239  3407  3398   ar
  2240   689   680   ar
  2241  2954  2945   ar
  2242  2048  2039   ar
  2243  3860  3851   ar
  2244  2501  2492   ar
  2245   236   227   ar
  2246  1142  1133   ar
  2247  1595  1586   ar
  2248   207   200    1
  2249  1113  1106   ar
  2250  2019  2012   ar
  2251  3378  3371   ar
  2252  2925  2918    1
  2253  3831  3824   ar
  2254   660   653   ar
  2255  1566  1559    1
  2256  2472  2465   ar
  2257  3413  3353    1
  2258  3413  3397    1
  2259  2507  2447    1
  2260  2507  2491    1
  2261  2054  1994    1
  2262  2054  2038    1
  2263  2960  2900    1
  2264  2960  2944    1
  2265  3866  3806    1
  2266  3866  3850    1
  2267  1148  1088    1
  2268  1148  1132    1
  2269   242   182    1
  2270   242   226    1
  2271  1601  1541    1
  2272  1601  1585    1
  2273   695   635    1
  2274   695   679    1
  2275  1593  3400   ar
  2276   234  2041   ar
  2277   687  2494   ar
  2278  2046  3853   ar
  2279  2491  2502   ar
  2280  2038  2049   ar
  2281  3850  3861   ar
  2282   679   690   ar
  2283  1132  1143   ar
  2284  2944  2955   ar
  2285  1585  1596   ar
  2286   226   237   ar
  2287  3397  3408   ar
  2288  2492  2425    1
  2289  2492  2476   ar
  2290  2945  2878    1
  2291  2945  2929   ar
  2292  3851  3784    1
  2293  3851  3835   ar
  2294  3398  3331    1
  2295  3398  3382   ar
  2296  2039  1972    1
  2297  2039  2023   ar
  2298   680   613    1
  2299   680   664   ar
  2300  1586  1519    1
  2301  1586  1570   ar
  2302   227   160    1
  2303   227   211   ar
  2304  1133  1066    1
  2305  1133  1117   ar
  2306  1550  1605    1
  2307   191   246    1
  2308  2456  2511    1
  2309  2909  2964    1
  2310  3362  3417    1
  2311  1097  1152    1
  2312  3815  3870    1
  2313  2003  2058    1
  2314   644   699    1
  2315  3406  3342    1
  2316  3406  3384   ar
  2317  2500  2436    1
  2318  2500  2478   ar
  2319   688   624    1
  2320   688   666    1
  2321   235   171    1
  2322   235   213    1
  2323  2047  1983    1
  2324  2047  2025   ar
  2325  1141  1077    1
  2326  1141  1119    1
  2327  3859  3795    1
  2328  3859  3837   ar
  2329  2953  2889    1
  2330  2953  2931    1
  2331  1594  1530    1
  2332  1594  1572    1
  2333   206   177    1
  2334   206   657   ar
  2335  1565  1536    1
  2336  1565  2016   ar
  2337  2924  2895    1
  2338  2924  3375   ar
  2339  1112  1083    1
  2340  2471  2442    1
  2341  3830  3801    1
  2342  3377  3348    1
  2343  3377  3828   ar
  2344  2018  1989    1
  2345  2018  2469   ar
  2346   659   630    1
  2347   659  1110   ar
  2348  2494  2478   ar
  2349  2494  2426    1
  2350  1588  1572    1
  2351  1588  1520    1
  2352  3400  3384   ar
  2353  3400  3332    1
  2354   682   666    1
  2355   682   614    1
  2356  2947  2931    1
  2357  2947  2879    1
  2358  2041  2025   ar
  2359  2041  1973    1
  2360  1135  1119    1
  2361  1135  1067    1
  2362   229   213    1
  2363   229   161    1
  2364  3853  3837   ar
  2365  3853  3785    1
  2366   690   664   ar
  2367   690   623    1
  2368  2955  2929   ar
  2369  2955  2888    1
  2370  1596  1570   ar
  2371  1596  1529    1
  2372  3861  3835   ar
  2373  3861  3794    1
  2374  1143  1117   ar
  2375  1143  1076    1
  2376  2502  2476   ar
  2377  2502  2435    1
  2378  3408  3382   ar
  2379  3408  3341    1
  2380   237   211   ar
  2381   237   170    1
  2382  2049  2023   ar
  2383  2049  1982    1
  2384  2014  2058    1
  2385  2014  3380   ar
  2386  2467  2511    1
  2387  2467  3833   ar
  2388  1108  1152    1
  2389  1108  2474   ar
  2390   202   246    1
  2391   202  1568   ar
  2392  2920  2964    1
  2393   655   699    1
  2394   655  2021   ar
  2395  3826  3870    1
  2396  3373  3417    1
  2397  1561  1605    1
  2398  1561  2927   ar
  2399  1117  1125    1
  2400  2929  2937    1
  2401  2023  2031    1
  2402   211   219    1
  2403   664   672    1
  2404  2476  2484    1
  2405  3835  3843    1
  2406  3382  3390    1
  2407  1570  1578    1
  2408  3837  3845    1
  2409  2931  2939    2
  2410   666   674    2
  2411  1119  1127    2
  2412   213   221    2
  2413  2025  2033    1
  2414  1572  1580    2
  2415  2478  2486    1
  2416  3384  3392    1
  2417  3870  3814    1
  2418  1152  1096    1
  2419  2058  2002    1
  2420  2964  2908    1
  2421   699   643    1
  2422  2511  2455    1
  2423  1605  1549    1
  2424  3417  3361    1
  2425   246   190    1
  2426  2464  2474   ar
  2427  2464  2460    1
  2428  2011  2021   ar
  2429  2011  2007    1
  2430   199   209    1
  2431   199   195    2
  2432  3370  3380   ar
  2433  3370  3366    1
  2434  3823  3833   ar
  2435  3823  3819    1
  2436  2917  2927   ar
  2437  2917  2913    1
  2438   652   662    1
  2439   652   648    2
  2440  1558  1568   ar
  2441  1558  1554    1
  2442  1105  1115    1
  2443  1105  1101    2
  2444  1559  1563    1
  2445  1559  1555    2
  2446  2012  2016   ar
  2447  2012  2008    1
  2448  2918  2922    1
  2449  2918  2914    2
  2450   200   204    1
  2451   200   196    2
  2452  2465  2469   ar
  2453  2465  2461    1
  2454  3371  3375   ar
  2455  3371  3367    1
  2456  3824  3828   ar
  2457  3824  3820    1
  2458   653   657   ar
  2459   653   649    1
  2460  1106  1110   ar
  2461  1106  1102    1
  2462  3843  3889    1
  2463  3843  3899    1
  2464  2484  2530    1
  2465  2484  2540    1
  2466  2937  2983    1
  2467  2937  2993    1
  2468  2031  2077    1
  2469  2031  2087    1
  2470   219   265    1
  2471   219   275    1
  2472  1578  1624    1
  2473  1578  1634    1
  2474  3390  3436    1
  2475  3390  3446    1
  2476   672   718    1
  2477   672   728    1
  2478  1125  1171    1
  2479  1125  1181    1
  2480  1568  1537    1
  2481  2927  2896    1
  2482  2021  1990    1
  2483   662   631    1
  2484   209   178    1
  2485  3380  3349    1
  2486  1115  1084    1
  2487  2474  2443    1
  2488  3833  3802    1
  2489  3828  3871    1
  2490  1563  1606    1
  2491  3375  3418    1
  2492  2469  2512    1
  2493  2016  2059    1
  2494   657   700    1
  2495   204   247    1
  2496  2922  2965    1
  2497  1110  1153    1
  2498  2033  2085    1
  2499  2033  2079    1
  2500  3392  3444    1
  2501  3392  3438    1
  2502  3845  3897    1
  2503  3845  3891    1
  2504  2486  2538    1
  2505  2486  2532    1
  2506   674   726    1
  2507   674   720    1
  2508  2939  2991    1
  2509  2939  2985    1
  2510  1127  1179    1
  2511  1127  1173    1
  2512  1580  1632    1
  2513  1580  1626    1
  2514   221   273    1
  2515   221   267    1
  2516  2983  2876    1
  2517  3889  3782    1
  2518  1624  1517    1
  2519   718   611    1
  2520  2077  1970    1
  2521  3436  3329    1
  2522   265   158    1
  2523  1171  1064    1
  2524  2530  2423    1
  2525   249   195    1
  2526   249   158    1
  2527  2967  2913    1
  2528  2967  2876    1
  2529  3420  3366    1
  2530  3420  3329    1
  2531   702   648    1
  2532   702   611    1
  2533  3873  3819    1
  2534  3873  3782    1
  2535  1608  1554    1
  2536  1608  1517    1
  2537  2514  2460    1
  2538  2514  2423    1
  2539  1155  1101    1
  2540  1155  1064    1
  2541  2061  2007    1
  2542  2061  1970    1
  2543   728   607    1
  2544  3899  3778    1
  2545  1634  1513    1
  2546  1181  1060    1
  2547   275   154    1
  2548  2540  2419    1
  2549  2993  2872    1
  2550  2087  1966    1
  2551  3446  3325    1
  2552   253   196    1
  2553   253   154    1
  2554  2518  2461    1
  2555  2518  2419    1
  2556  1159  1102    1
  2557  1159  1060    1
  2558  2971  2914    1
  2559  2971  2872    1
  2560  3877  3820    1
  2561  3877  3778    1
  2562  2065  2008    1
  2563  2065  1966    1
  2564  3424  3367    1
  2565  3424  3325    1
  2566   706   649    1
  2567   706   607    1
  2568  1612  1555    1
  2569  1612  1513    1
  2570  2991  2872    1
  2571  3897  3778    1
  2572  2538  2419    1
  2573  2085  1966    1
  2574  3444  3325    1
  2575   273   154    1
  2576  1179  1060    1
  2577  1632  1513    1
  2578   726   607    1
  2579   720   611    1
  2580  2079  1970    1
  2581  3438  3329    1
  2582  1173  1064    1
  2583  3891  3782    1
  2584   267   158    1
  2585  2532  2423    1
  2586  1626  1517    1
  2587  2985  2876    1
  2588  1101  1161    1
  2589   648   708    1
  2590  2913  2973    1
  2591  2460  2520    1
  2592  3366  3426    1
  2593  2007  2067    1
  2594   195   255    1
  2595  3819  3879    1
  2596  1554  1614    1
  2597  2008  2062    1
  2598  1555  1609    1
  2599   649   703    1
  2600   196   250    1
  2601  3367  3421    1
  2602  3820  3874    1
  2603  2914  2968    1
  2604  1102  1156    1
  2605  2461  2515    1
  2606  1202  1197    1
  2607   749   744    1
  2608  2108  2103    1
  2609  1655  1650    1
  2610   296   291    1
  2611  3467  3462    1
  2612  3014  3009    1
  2613  3920  3915    1
  2614  2561  2556    1
  2615   700   645    1
  2616   700   646    1
  2617   247   192    1
  2618   247   193    1
  2619  2512  2457    1
  2620  2512  2458    1
  2621  2059  2004    1
  2622  2059  2005    1
  2623  3418  3363    1
  2624  3418  3364    1
  2625  1606  1551    1
  2626  1606  1552    1
  2627  3871  3816    1
  2628  3871  3817    1
  2629  1153  1098    1
  2630  1153  1099    1
  2631  2965  2910    1
  2632  2965  2911    1
  2633  3458  3462    1
  2634  3005  3009    1
  2635  2099  2103    1
  2636  3911  3915    1
  2637  1646  1650    1
  2638  1193  1197    1
  2639  2552  2556    1
  2640   287   291    1
  2641   740   744    1
  2642  3329  3452    1
  2643  3329  3428    1
  2644  3329  3430    1
  2645  1970  2093    1
  2646  1970  2069    1
  2647  1970  2071    1
  2648  3782  3905    1
  2649  3782  3881    1
  2650  3782  3883    1
  2651  1064  1187    1
  2652  1064  1163    1
  2653  1064  1165    1
  2654  2423  2546    1
  2655  2423  2522    1
  2656  2423  2524    1
  2657  1517  1640    1
  2658  1517  1616    1
  2659  1517  1618    1
  2660  2876  2999    1
  2661  2876  2975    1
  2662  2876  2977    1
  2663   158   281    1
  2664   158   257    1
  2665   158   259    1
  2666   611   734    1
  2667   611   710    1
  2668   611   712    1
  2669  1513  1619    1
  2670  1513  1621    1
  2671   607   713    1
  2672   607   715    1
  2673   154   260    1
  2674   154   262    1
  2675  2419  2525    1
  2676  2419  2527    1
  2677  2872  2978    1
  2678  2872  2980    1
  2679  3325  3431    1
  2680  3325  3433    1
  2681  1966  2072    1
  2682  1966  2074    1
  2683  3778  3884    1
  2684  3778  3886    1
  2685  1060  1166    1
  2686  1060  1168    1
  2687  3923  3922    1
  2688   299   298    1
  2689  2111  2110    1
  2690  3017  3016    1
  2691  1205  1204    1
  2692   752   751    1
  2693  2564  2563    1
  2694  1658  1657    1
  2695  3470  3469    1
  2696  2067  1964    1
  2697  1614  1511    1
  2698  3426  3323    1
  2699   255   152    1
  2700  2520  2417    1
  2701  2973  2870    1
  2702  1161  1058    1
  2703   708   605    1
  2704  3879  3776    1
  2705  3421  3328    1
  2706  2515  2422    1
  2707  1156  1063    1
  2708  2062  1969    1
  2709  2968  2875    1
  2710   703   610    1
  2711  1609  1516    1
  2712  3874  3781    1
  2713   250   157    1
  2714   744   751    1
  2715   744   745    1
  2716  2556  2563    1
  2717  2556  2557    1
  2718  3009  3016    1
  2719  3009  3010    1
  2720  2103  2110    1
  2721  2103  2104    1
  2722  1197  1204    1
  2723  1197  1198    1
  2724  3462  3469    1
  2725  3462  3463    1
  2726  1650  1657    1
  2727  1650  1651    1
  2728  3915  3922    1
  2729  3915  3916    1
  2730   291   298    1
  2731   291   292    1
  2732   639   697    1
  2733  2904  2962    1
  2734  3810  3868    1
  2735  1092  1150    1
  2736  1998  2056    1
  2737  3357  3415    1
  2738   186   244    1
  2739  2451  2509    1
  2740  1545  1603    1
  2741  3909  3912    1
  2742  3456  3459    1
  2743   285   288    1
  2744   738   741    1
  2745  1644  1647    1
  2746  3003  3006    1
  2747  1191  1194    1
  2748  2550  2553    1
  2749  2097  2100    1
  2750   281   174    1
  2751  2546  2439    1
  2752  3452  3345    1
  2753  1640  1533    1
  2754  3905  3798    1
  2755   734   627    1
  2756  1187  1080    1
  2757  2093  1986    1
  2758  2999  2892    1
  2759   298   302    1
  2760   298   294    1
  2761  3922  3926    1
  2762  3922  3918    1
  2763  1204  1208    1
  2764  1204  1200    1
  2765   751   755    1
  2766   751   747    1
  2767  2563  2567    1
  2768  2563  2559    1
  2769  3469  3473    1
  2770  3469  3465    1
  2771  3016  3020    1
  2772  3016  3012    1
  2773  1657  1661    1
  2774  1657  1653    1
  2775  2110  2114    1
  2776  2110  2106    1
  2777  2975  2870    1
  2778   710   605    1
  2779  3881  3776    1
  2780   257   152    1
  2781  2069  1964    1
  2782  2522  2417    1
  2783  1163  1058    1
  2784  1616  1511    1
  2785  3428  3323    1
  2786  1166  1063    1
  2787  2978  2875    1
  2788  2072  1969    1
  2789   713   610    1
  2790  3884  3781    1
  2791  1619  1516    1
  2792   260   157    1
  2793  2525  2422    1
  2794  3431  3328    1
  2795  1165  1058    1
  2796  2524  2417    1
  2797  3883  3776    1
  2798  2071  1964    1
  2799  2977  2870    1
  2800   259   152    1
  2801  3430  3323    1
  2802   712   605    1
  2803  1618  1511    1
  2804  3811  3868    1
  2805  1093  1150    1
  2806  1999  2056    1
  2807   640   697    1
  2808  2905  2962    1
  2809  1546  1603    1
  2810   187   244    1
  2811  3358  3415    1
  2812  2452  2509    1
  2813   697   691    1
  2814  2962  2956    1
  2815   244   238    1
  2816  1150  1144    1
  2817  2056  2050    1
  2818  2509  2503    1
  2819  1603  1597    1
  2820  3868  3862    1
  2821  3415  3409    1
  2822  3886  3781    1
  2823   715   610    1
  2824  2074  1969    1
  2825   262   157    1
  2826  1621  1516    1
  2827  1168  1063    1
  2828  3433  3328    1
  2829  2980  2875    1
  2830  2527  2422    1
  2831  3912  3918    1
  2832  3912  3910    2
  2833  3006  3012    1
  2834  3006  3004    2
  2835   288   294    1
  2836   288   286    2
  2837  2553  2559    1
  2838  2553  2551    2
  2839  1194  1200    1
  2840  1194  1192    2
  2841   741   747    1
  2842   741   739    2
  2843  2100  2106    1
  2844  2100  2098    2
  2845  1647  1653    1
  2846  1647  1645    2
  2847  3459  3465    1
  2848  3459  3457    2
  2849  1524  1592    1
  2850   165   233    1
  2851  3336  3404    1
  2852  2883  2951    1
  2853   618   686    1
  2854  2430  2498    1
  2855  1977  2045    1
  2856  3789  3857    1
  2857  1071  1139    1
  2858  1979  2052    1
  2859  1073  1146    1
  2860  1526  1599    1
  2861  2432  2505    1
  2862  3791  3864    1
  2863  2885  2958    1
  2864   620   693    1
  2865   167   240    1
  2866  3338  3411    1
  2867  2881  2949    1
  2868  3787  3855    1
  2869   616   684    1
  2870  1975  2043    1
  2871  1522  1590    1
  2872  2428  2496    1
  2873   163   231    1
  2874  1069  1137    1
  2875  3334  3402    1
  2876  2559  2562    1
  2877  3012  3015    1
  2878   747   750    1
  2879  1200  1203    1
  2880  3918  3921    1
  2881  3465  3468    1
  2882  2106  2109    1
  2883   294   297    1
  2884  1653  1656    1
  2885  1058  1183    1
  2886  1058  1185    1
  2887  2417  2542    1
  2888  2417  2544    1
  2889  1511  1636    1
  2890  1511  1638    1
  2891   605   730    1
  2892   605   732    1
  2893  3323  3448    1
  2894  3323  3450    1
  2895  2870  2995    1
  2896  2870  2997    1
  2897  3776  3901    1
  2898  3776  3903    1
  2899   152   277    1
  2900   152   279    1
  2901  1964  2089    1
  2902  1964  2091    1
  2903  1063  1176    1
  2904  1063  1174    1
  2905  1063  1339    1
  2906  3781  3894    1
  2907  3781  3892    1
  2908  3781  4057    1
  2909   157   270    1
  2910   157   268    1
  2911   157   433    1
  2912  2422  2535    1
  2913  2422  2533    1
  2914  2422  2698    1
  2915  1969  2082    1
  2916  1969  2080    1
  2917  1969  2245    1
  2918  1516  1629    1
  2919  1516  1627    1
  2920  1516  1792    1
  2921  3328  3441    1
  2922  3328  3439    1
  2923  3328  3604    1
  2924  2875  2988    1
  2925  2875  2986    1
  2926  2875  3151    1
  2927   610   723    1
  2928   610   721    1
  2929   610   886    1
  2930   686   821    1
  2931  1139  1274    1
  2932   233   368    1
  2933  1592   238   ar
  2934  1592  1727   ar
  2935  2951  1597   ar
  2936  2951  3086   ar
  2937  2045   691   ar
  2938  2045  2180   ar
  2939  3857  2503   ar
  2940  3857  3992   ar
  2941  2498  1144   ar
  2942  2498  2633   ar
  2943  3404  2050   ar
  2944  3404  3539   ar
  2945   238   367   ar
  2946  1144  1273   ar
  2947  1597  1726   ar
  2948  2956  3085    1
  2949  2050  2179   ar
  2950  2503  2632   ar
  2951   691   820   ar
  2952  3862  3991    1
  2953  3409  3538    1
  2954   240   365    1
  2955  2505  2043   ar
  2956  2505  2630   ar
  2957  1146   684   ar
  2958  1146  1271   ar
  2959  2052  1590   ar
  2960  2052  2177   ar
  2961  1599  1724    1
  2962  3411  2949   ar
  2963  3411  3536   ar
  2964  3864  3402   ar
  2965  3864  3989   ar
  2966   693   231   ar
  2967   693   818   ar
  2968  2958  3083    1
  2969  1629  1734    1
  2970  3441  3546    1
  2971  2988  3093    1
  2972  2082  2187    1
  2973  1176  1281    1
  2974  2535  2640    1
  2975  3894  3999    1
  2976   270   375    1
  2977   723   828    1
  2978  2995  3094    1
  2979  3448  3547    1
  2980  2089  2188    1
  2981  1183  1282    1
  2982  2542  2641    1
  2983   277   376    1
  2984  1636  1735    1
  2985  3901  4000    1
  2986   730   829    1
  2987   684   819   ar
  2988  2496  2631    1
  2989  3402  3537   ar
  2990  1590  1725   ar
  2991   231   366   ar
  2992  3855  3990    1
  2993  2043  2178   ar
  2994  2949  3084   ar
  2995  1137  1272    1
  2996  3004  3002    1
  2997  3004  3008    1
  2998  2551  2549    1
  2999  2551  2555    1
  3000   286   284    1
  3001   286   290    1
  3002  2098  2096    1
  3003  2098  2102    1
  3004   739   737    1
  3005   739   743    1
  3006  1645  1643    1
  3007  1645  1649    1
  3008  3910  3908    1
  3009  3910  3914    1
  3010  3457  3455    1
  3011  3457  3461    1
  3012  1192  1190    1
  3013  1192  1196    1
  3014   732   827    1
  3015  2544  2639    1
  3016  3903  3998    1
  3017   279   374    1
  3018  2091  2186    1
  3019  1185  1280    1
  3020  1638  1733    1
  3021  2997  3092    1
  3022  3450  3545    1
  3023  3892  3997    1
  3024   268   373    1
  3025  3439  3544    1
  3026  1627  1732    1
  3027  1174  1279    1
  3028  2986  3091    1
  3029  2080  2185    1
  3030   721   826    1
  3031  2533  2638    1
  3032   297   290    1
  3033   297   301    1
  3034  2109  2102    1
  3035  2109  2113    1
  3036  1203  1196    1
  3037  1203  1207    1
  3038  3921  3914    1
  3039  3921  3925    1
  3040  1656  1649    1
  3041  1656  1660    1
  3042  2562  2555    1
  3043  2562  2566    1
  3044  3015  3008    1
  3045  3015  3019    1
  3046  3468  3461    1
  3047  3468  3472    1
  3048   750   743    1
  3049   750   754    1
  3050  3041  3152    1
  3051   323   434    1
  3052  2588  2699    1
  3053  1229  1340    1
  3054  3947  4058    1
  3055  3494  3605    1
  3056  2135  2246    1
  3057  1682  1793    1
  3058   776   887    1
  3059  2555  2558    1
  3060   743   746    1
  3061  3008  3011    1
  3062  1649  1652    1
  3063  3461  3464    1
  3064  3914  3917    1
  3065   290   293    1
  3066  2102  2105    1
  3067  1196  1199    1
  3068  1274  1282    2
  3069  1274  1296    1
  3070  2633  2641    1
  3071  2633  2655   ar
  3072  1727  1735    1
  3073  1727  1749   ar
  3074  3539  3547    1
  3075  3539  3561   ar
  3076   821   829    2
  3077   821   843    1
  3078   368   376    2
  3079   368   390    1
  3080  3992  4000    1
  3081  3992  4014   ar
  3082  3086  3094    1
  3083  3086  3108   ar
  3084  2180  2188    1
  3085  2180  2202   ar
  3086  3085  3093    2
  3087  3085  3101    1
  3088  1273  1281    1
  3089  1273  1289   ar
  3090  3991  3999    2
  3091  3991  4007    1
  3092  1726  1734    1
  3093  1726  1742   ar
  3094  2179  2187    1
  3095  2179  2195   ar
  3096  2632  2640    1
  3097  2632  2648   ar
  3098  3538  3546    2
  3099  3538  3554    1
  3100   820   828    1
  3101   820   836   ar
  3102   367   375    1
  3103   367   383   ar
  3104  3999  4051    1
  3105  3546  3598    1
  3106   828   880    1
  3107  2640  2692    1
  3108  1281  1333    1
  3109  3093  3145    1
  3110   375   427    1
  3111  2187  2239    1
  3112  1734  1786    1
  3113  1282  1328    1
  3114   376   422    1
  3115   829   875    1
  3116  1735  1781    1
  3117  2188  2234    1
  3118  3547  3593    1
  3119  4000  4046    1
  3120  2641  2687    1
  3121  3094  3140    1
  3122  3152  3025    1
  3123  4058  3931    1
  3124   887   760    1
  3125  1793  1666    1
  3126  2246  2119    1
  3127  3605  3478    1
  3128   434   307    1
  3129  2699  2572    1
  3130  1340  1213    1
  3131  3604  3495    1
  3132   886   777    1
  3133  2698  2589    1
  3134  1339  1230    1
  3135   433   324    1
  3136  2245  2136    1
  3137  4057  3948    1
  3138  3151  3042    1
  3139  1792  1683    1
  3140  3998  3990    2
  3141  3998  4044    1
  3142  3545  3537    1
  3143  3545  3591    1
  3144   374   366    1
  3145   374   420    1
  3146  3092  3084    1
  3147  3092  3138    1
  3148  1280  1272    2
  3149  1280  1326    1
  3150   827   819    1
  3151   827   873    1
  3152  2186  2178    1
  3153  2186  2232    1
  3154  1733  1725    1
  3155  1733  1779    1
  3156  2639  2631    2
  3157  2639  2685    1
  3158  1271  1279    1
  3159  1271  1287   ar
  3160  3989  3997    1
  3161  3989  4005   ar
  3162  3536  3544    1
  3163  3536  3552   ar
  3164  2630  2638    1
  3165  2630  2646   ar
  3166  2177  2185    1
  3167  2177  2193   ar
  3168  1724  1732    2
  3169  1724  1740    1
  3170   818   826    1
  3171   818   834   ar
  3172  3083  3091    2
  3173  3083  3099    1
  3174   365   373    2
  3175   365   381    1
  3176  3997  4053    1
  3177   826   882    1
  3178  1279  1335    1
  3179  1732  1788    1
  3180  3091  3147    1
  3181  2185  2241    1
  3182  2638  2694    1
  3183  3544  3600    1
  3184   373   429    1
  3185   366   392   ar
  3186  2631  2657    1
  3187  2178  2204   ar
  3188  3084  3110   ar
  3189  1725  1751   ar
  3190  1272  1298    1
  3191   819   845   ar
  3192  3537  3563   ar
  3193  3990  4016    1
  3194   880   757    1
  3195  1333  1210    1
  3196  1786  1663    1
  3197  2239  2116    1
  3198  3598  3475    1
  3199   427   304    1
  3200  3145  3022    1
  3201  2692  2569    1
  3202  4051  3928    1
  3203  1781  1666    1
  3204  3593  3478    1
  3205   422   307    1
  3206  4046  3931    1
  3207  3140  3025    1
  3208  1328  1213    1
  3209   875   760    1
  3210  2687  2572    1
  3211  2234  2119    1
  3212  2202   836   ar
  3213  2202  2131    1
  3214  3108  1742   ar
  3215  3108  3037    1
  3216  4014  2648   ar
  3217  4014  3943    1
  3218  1749   383   ar
  3219  1749  1678    1
  3220  1296  1225    1
  3221   390   319    1
  3222  2655  1289   ar
  3223  2655  2584    1
  3224   843   772    1
  3225  3561  2195   ar
  3226  3561  3490    1
  3227   873   760    1
  3228  4044  3931    1
  3229  3591  3478    1
  3230  3138  3025    1
  3231  1779  1666    1
  3232  2232  2119    1
  3233  2685  2572    1
  3234  1326  1213    1
  3235   420   307    1
  3236   383   317    1
  3237  1289  1223    1
  3238  2648  2582    1
  3239  2195  2129    1
  3240  1742  1676    1
  3241  4007  3941    1
  3242  3554  3488    1
  3243   836   770    1
  3244  3101  3035    1
  3245  1335  1210    1
  3246  2241  2116    1
  3247  1788  1663    1
  3248  3600  3475    1
  3249   429   304    1
  3250  2694  2569    1
  3251   882   757    1
  3252  4053  3928    1
  3253  3147  3022    1
  3254  1740  1674    1
  3255  1287   845   ar
  3256  1287  1221    1
  3257  2646  2204   ar
  3258  2646  2580    1
  3259   381   315    1
  3260   834   392   ar
  3261   834   768    1
  3262  3552  3110   ar
  3263  3552  3486    1
  3264  4005  3563   ar
  3265  4005  3939    1
  3266  3099  3033    1
  3267  2193  1751   ar
  3268  2193  2127    1
  3269   746   748    1
  3270   746   742    1
  3271   746   753    1
  3272  1199  1201    1
  3273  1199  1195    1
  3274  1199  1206    1
  3275  3011  3013    1
  3276  3011  3007    1
  3277  3011  3018    1
  3278   293   295    1
  3279   293   289    1
  3280   293   300    1
  3281  2105  2107    1
  3282  2105  2101    1
  3283  2105  2112    1
  3284  3464  3466    1
  3285  3464  3460    1
  3286  3464  3471    1
  3287  3917  3919    1
  3288  3917  3913    1
  3289  3917  3924    1
  3290  2558  2560    1
  3291  2558  2554    1
  3292  2558  2565    1
  3293  1652  1654    1
  3294  1652  1648    1
  3295  1652  1659    1
  3296   845   847    1
  3297  2657  2659    2
  3298   392   394    1
  3299  2204  2206    1
  3300  3110  3112    1
  3301  4016  4018    2
  3302  1298  1300    2
  3303  1751  1753    1
  3304  3563  3565    1
  3305  1213  1320    1
  3306  1213  1318    1
  3307  1213  1308    1
  3308   307   414    1
  3309   307   412    1
  3310   307   402    1
  3311  1666  1773    1
  3312  1666  1771    1
  3313  1666  1761    1
  3314  3478  3585    1
  3315  3478  3583    1
  3316  3478  3573    1
  3317  2119  2226    1
  3318  2119  2224    1
  3319  2119  2214    1
  3320  3931  4038    1
  3321  3931  4036    1
  3322  3931  4026    1
  3323  3025  3132    1
  3324  3025  3130    1
  3325  3025  3120    1
  3326   760   867    1
  3327   760   865    1
  3328   760   855    1
  3329  2572  2679    1
  3330  2572  2677    1
  3331  2572  2667    1
  3332   304   409    1
  3333   304   407    1
  3334   304   405    1
  3335  3928  4033    1
  3336  3928  4031    1
  3337  3928  4029    1
  3338   757   862    1
  3339   757   860    1
  3340   757   858    1
  3341  2569  2674    1
  3342  2569  2672    1
  3343  2569  2670    1
  3344  2116  2221    1
  3345  2116  2219    1
  3346  2116  2217    1
  3347  3475  3580    1
  3348  3475  3578    1
  3349  3475  3576    1
  3350  3022  3127    1
  3351  3022  3125    1
  3352  3022  3123    1
  3353  1210  1315    1
  3354  1210  1313    1
  3355  1210  1311    1
  3356  1663  1768    1
  3357  1663  1766    1
  3358  1663  1764    1
  3359  3044  3149    1
  3360   326   431    1
  3361  2138  2243    1
  3362   779   884    1
  3363  1685  1790    1
  3364  3497  3602    1
  3365  2591  2696    1
  3366  3950  4055    1
  3367  1232  1337    1
  3368  3112  3053    1
  3369  3112  3507    1
  3370  3565  3506    1
  3371  3565  3960    1
  3372  4018  3959    1
  3373  1300  1241    1
  3374   847   788    1
  3375   847  1242    1
  3376  1753  1694    1
  3377  1753  2148    1
  3378  2206  2147    1
  3379  2206  2601    1
  3380  2659  2600    1
  3381   394   335    1
  3382   394   789    1
  3383  3585  3477    1
  3384  3132  3024    1
  3385  1773  1665    1
  3386  2226  2118    1
  3387  4038  3930    1
  3388   867   759    1
  3389  1320  1212    1
  3390   414   306    1
  3391  2679  2571    1
  3392  2674  2575    1
  3393  1768  1669    1
  3394   862   763    1
  3395   409   310    1
  3396  1315  1216    1
  3397  3580  3481    1
  3398  4033  3934    1
  3399  3127  3028    1
  3400  2221  2122    1
  3401  3578  3481    1
  3402  2219  2122    1
  3403  2672  2575    1
  3404   407   310    1
  3405   860   763    1
  3406  1766  1669    1
  3407  4031  3934    1
  3408  1313  1216    1
  3409  3125  3028    1
  3410  1771  1665    1
  3411  3583  3477    1
  3412  1318  1212    1
  3413  2224  2118    1
  3414  3130  3024    1
  3415   865   759    1
  3416  2677  2571    1
  3417  4036  3930    1
  3418   412   306    1
  3419   884   763    1
  3420  2243  2122    1
  3421  1337  1216    1
  3422  4055  3934    1
  3423  3149  3028    1
  3424  3602  3481    1
  3425  1790  1669    1
  3426   431   310    1
  3427  2696  2575    1
  3428  1308  1254    1
  3429  4026  3972    1
  3430   402   348    1
  3431   855   801    1
  3432  2214  2160    1
  3433  2667  2613    1
  3434  1761  1707    1
  3435  3573  3519    1
  3436  3120  3066    1
  3437  1311  1251    1
  3438  1764  1704    1
  3439  4029  3969    1
  3440  3123  3063    1
  3441   405   345    1
  3442   858   798    1
  3443  2670  2610    1
  3444  2217  2157    1
  3445  3576  3516    1
  3446  3934  4041    1
  3447  3934  4023    1
  3448  3934  4039    1
  3449  1216  1323    1
  3450  1216  1305    1
  3451  1216  1321    1
  3452  1669  1776    1
  3453  1669  1758    1
  3454  1669  1774    1
  3455  2122  2229    1
  3456  2122  2211    1
  3457  2122  2227    1
  3458   763   870    1
  3459   763   852    1
  3460   763   868    1
  3461  2575  2682    1
  3462  2575  2664    1
  3463  2575  2680    1
  3464   310   417    1
  3465   310   399    1
  3466   310   415    1
  3467  3481  3588    1
  3468  3481  3570    1
  3469  3481  3586    1
  3470  3028  3135    1
  3471  3028  3117    1
  3472  3028  3133    1
  3473   759   876    1
  3474   759   856    1
  3475   759   878    1
  3476  3477  3594    1
  3477  3477  3574    1
  3478  3477  3596    1
  3479  3930  4047    1
  3480  3930  4027    1
  3481  3930  4049    1
  3482  2118  2235    1
  3483  2118  2215    1
  3484  2118  2237    1
  3485   306   423    1
  3486   306   403    1
  3487   306   425    1
  3488  1665  1782    1
  3489  1665  1762    1
  3490  1665  1784    1
  3491  3024  3141    1
  3492  3024  3121    1
  3493  3024  3143    1
  3494  2571  2688    1
  3495  2571  2668    1
  3496  2571  2690    1
  3497  1212  1329    1
  3498  1212  1309    1
  3499  1212  1331    1
  3500   785   809    1
  3501  1691  1715    1
  3502  3050  3074    1
  3503  2597  2621    1
  3504   332   356    1
  3505  3503  3527    1
  3506  1238  1262    1
  3507  3956  3980    1
  3508  2144  2168    1
  3509  2142  2171    1
  3510   330   359    1
  3511  3954  3983    1
  3512  3501  3530    1
  3513  1689  1718    1
  3514  2595  2624    1
  3515  1236  1265    1
  3516   783   812    1
  3517  3048  3077    1
  3518   801   856    1
  3519   801   805    1
  3520  2613  2668    1
  3521  2613  2617    2
  3522  3066  3121    1
  3523  3066  3070    1
  3524   348   403    1
  3525   348   352    1
  3526  2160  2215    1
  3527  2160  2164    1
  3528  1254  1309    1
  3529  1254  1258    2
  3530  3972  4027    1
  3531  3972  3976    2
  3532  3519  3574    1
  3533  3519  3523    1
  3534  1707  1762    1
  3535  1707  1711    1
  3536  2157  2211    1
  3537  2157  2161    1
  3538  3516  3570    1
  3539  3516  3520    2
  3540  3969  4023    1
  3541  3969  3973    2
  3542  1251  1305    1
  3543  1251  1255    1
  3544  1704  1758    1
  3545  1704  1708    1
  3546   345   399    1
  3547   345   349    1
  3548   798   852    1
  3549   798   802    1
  3550  3063  3117    1
  3551  3063  3067    2
  3552  2610  2664    1
  3553  2610  2614    1
  3554   876   824    1
  3555  1782  1730    1
  3556  2235  2183    1
  3557  2688  2636    1
  3558  3594  3542    1
  3559  4047  3995    1
  3560  3141  3089    1
  3561   423   371    1
  3562  1329  1277    1
  3563  4041  3995    1
  3564   417   371    1
  3565  3135  3089    1
  3566  1776  1730    1
  3567  2229  2183    1
  3568  3588  3542    1
  3569  1323  1277    1
  3570   870   824    1
  3571  2682  2636    1
  3572   878   822    1
  3573  1331  1275    1
  3574  3143  3087    1
  3575  2690  2634    1
  3576  3596  3540    1
  3577  4049  3993    1
  3578   425   369    1
  3579  2237  2181    1
  3580  1784  1728    1
  3581  1774  1728    1
  3582   868   822    1
  3583  2227  2181    1
  3584  3586  3540    1
  3585  2680  2634    1
  3586  4039  3993    1
  3587   415   369    1
  3588  1321  1275    1
  3589  3133  3087    1
  3590  3995  3987    2
  3591  3542  3534    2
  3592   371   363    1
  3593  1277  1269    2
  3594  3089  3081    2
  3595   824   816    1
  3596  2183  2175    1
  3597  2636  2628    2
  3598  1730  1722    1
  3599  2168  2164   ar
  3600  2168  2623   ar
  3601   356   352   ar
  3602   356   811   ar
  3603   809   805   ar
  3604   809  1264   ar
  3605  1262  1258    1
  3606  3980  3976    1
  3607  3074  3070   ar
  3608  3074  3529   ar
  3609  1715  1711   ar
  3610  1715  2170   ar
  3611  2621  2617    1
  3612  3527  3523   ar
  3613  3527  3982   ar
  3614  2181  2173    1
  3615  3540  3532    1
  3616  1728  1720    1
  3617  3087  3079    1
  3618  2634  2626    1
  3619   822   814    1
  3620   369   361    1
  3621  1275  1267    1
  3622  3993  3985    1
  3623  1265  1255   ar
  3624  1265  2619   ar
  3625  2171  2161   ar
  3626  2171  3525   ar
  3627  3983  3973    1
  3628   359   349   ar
  3629   359  1713   ar
  3630  1718  1708   ar
  3631  1718  3072   ar
  3632  3077  3067    1
  3633  3530  3520    1
  3634   812   802   ar
  3635   812  2166   ar
  3636  2624  2614   ar
  3637  2624  3978   ar
  3638  1699  1755    1
  3639  2152  2208    1
  3640  3964  4020    1
  3641  1246  1302    1
  3642  2605  2661    1
  3643  3058  3114    1
  3644   793   849    1
  3645  3511  3567    1
  3646   340   396    1
  3647   352   357   ar
  3648  3976  3981    1
  3649  3523  3528   ar
  3650  3070  3075   ar
  3651  1711  1716   ar
  3652  2164  2169   ar
  3653  2617  2622    1
  3654   805   810   ar
  3655  1258  1263    1
  3656  3973  3977    1
  3657  1255  1259   ar
  3658   802   806   ar
  3659  2161  2165   ar
  3660  2614  2618   ar
  3661   349   353   ar
  3662  1708  1712   ar
  3663  3067  3071    1
  3664  3520  3524    1
  3665  1693  1752    1
  3666  3505  3564    1
  3667   334   393    1
  3668  2146  2205    1
  3669  1240  1299    1
  3670  2599  2658    1
  3671   787   846    1
  3672  3052  3111    1
  3673  3958  4017    1
  3674   331   354    1
  3675  1690  1713    1
  3676  3502  3525    1
  3677  3955  3978    1
  3678  3049  3072    1
  3679   784   807    1
  3680  2143  2166    1
  3681  2596  2619    1
  3682  1237  1260    1
  3683   766   832    1
  3684  1219  1285    1
  3685  2125  2191    1
  3686  1672  1738    1
  3687  2578  2644    1
  3688  3484  3550    1
  3689  3031  3097    1
  3690  3937  4003    1
  3691   313   379    1
  3692  3081  3097    1
  3693  3081  3103    1
  3694   816   832   ar
  3695   816   838   ar
  3696  2175  2191   ar
  3697  2175  2197   ar
  3698  2628  2644    1
  3699  2628  2650    1
  3700  1269  1285    1
  3701  1269  1291    1
  3702  3534  3550    1
  3703  3534  3556    1
  3704  3987  4003    1
  3705  3987  4009    1
  3706   363   379   ar
  3707   363   385   ar
  3708  1722  1738   ar
  3709  1722  1744   ar
  3710  1679  1746    1
  3711   773   840    1
  3712   320   387    1
  3713  3944  4011    1
  3714  1226  1293    1
  3715  3038  3105    1
  3716  2585  2652    1
  3717  3491  3558    1
  3718  2132  2199    1
  3719  2626  2652   ar
  3720  2626  2642   ar
  3721   814   840   ar
  3722   814   830   ar
  3723  3532  3558   ar
  3724  3532  3548   ar
  3725  1267  1293   ar
  3726  1267  1283   ar
  3727  3985  4011   ar
  3728  3985  4001   ar
  3729  3079  3105   ar
  3730  3079  3095   ar
  3731   361   387   ar
  3732   361   377   ar
  3733  1720  1746   ar
  3734  1720  1736   ar
  3735  2173  2199   ar
  3736  2173  2189   ar
  3737   780   811    1
  3738   327   358    1
  3739  3045  3076    1
  3740  3498  3529    1
  3741  3951  3982    1
  3742  1233  1264    1
  3743  2592  2623    1
  3744  2139  2170    1
  3745  1686  1717    1
  3746   396   339    1
  3747   396   385    1
  3748  3114  3057    1
  3749  3114  3103    1
  3750   849   792    1
  3751   849   838    1
  3752  3567  3510    1
  3753  3567  3556    1
  3754  2208  2151    1
  3755  2208  2197    1
  3756  1302  1245    1
  3757  1302  1291    1
  3758  4020  3963    1
  3759  4020  4009    1
  3760  2661  2604    1
  3761  2661  2650    1
  3762  1755  1698    1
  3763  1755  1744    1
  3764  1713  1709   ar
  3765  3525  3521   ar
  3766  3978  3974   ar
  3767  2619  2615   ar
  3768  2166  2162   ar
  3769   354   350    1
  3770   807   803    1
  3771  1260  1256    1
  3772  3072  3068   ar
  3773  2191  4010   ar
  3774  1738  3557   ar
  3775   832  2651   ar
  3776   379  2198   ar
  3777  3558  3549   ar
  3778   387   378   ar
  3779  4011  4002   ar
  3780   840   831   ar
  3781  2199  2190   ar
  3782  1293  1284   ar
  3783  3105  3096   ar
  3784  1746  1737   ar
  3785  2652  2643   ar
  3786  3529  3522   ar
  3787  2170  2163   ar
  3788   358   351    1
  3789  3982  3975   ar
  3790  1717  1710    1
  3791   811   804   ar
  3792  2623  2616   ar
  3793  3076  3069    1
  3794  1264  1257   ar
  3795  3111  3051    1
  3796  3111  3095    1
  3797  2658  2598    1
  3798  2658  2642    1
  3799  2205  2145    1
  3800  2205  2189    1
  3801  1752  1692    1
  3802  1752  1736    1
  3803   846   786    1
  3804   846   830    1
  3805   393   333    1
  3806   393   377    1
  3807  1299  1239    1
  3808  1299  1283    1
  3809  3564  3504    1
  3810  3564  3548    1
  3811  4017  3957    1
  3812  4017  4001    1
  3813  1744  3551   ar
  3814   838  2645   ar
  3815  2197  4004   ar
  3816   385  2192   ar
  3817   830   841   ar
  3818  3095  3106   ar
  3819  3548  3559   ar
  3820  4001  4012   ar
  3821  1283  1294   ar
  3822   377   388   ar
  3823  1736  1747   ar
  3824  2642  2653   ar
  3825  2189  2200   ar
  3826  3549  3482    1
  3827  3549  3533   ar
  3828  1284  1217    1
  3829  1284  1268   ar
  3830  3096  3029    1
  3831  3096  3080   ar
  3832  2643  2576    1
  3833  2643  2627   ar
  3834   378   311    1
  3835   378   362   ar
  3836  4002  3935    1
  3837  4002  3986   ar
  3838  2190  2123    1
  3839  2190  2174   ar
  3840  1737  1670    1
  3841  1737  1721   ar
  3842   831   764    1
  3843   831   815   ar
  3844   795   850    1
  3845  2154  2209    1
  3846  3513  3568    1
  3847  3060  3115    1
  3848  2607  2662    1
  3849  1701  1756    1
  3850  3966  4021    1
  3851   342   397    1
  3852  1248  1303    1
  3853  4010  3946    1
  3854  4010  3988   ar
  3855   386   322    1
  3856   386   364    1
  3857  1745  1681    1
  3858  1745  1723    1
  3859  2198  2134    1
  3860  2198  2176   ar
  3861  3104  3040    1
  3862  3104  3082    1
  3863   839   775    1
  3864   839   817    1
  3865  1292  1228    1
  3866  1292  1270    1
  3867  2651  2587    1
  3868  2651  2629   ar
  3869  3557  3493    1
  3870  3557  3535   ar
  3871  3075  3046    1
  3872  3075  3526   ar
  3873  2169  2140    1
  3874  2169  2620   ar
  3875  1263  1234    1
  3876   810   781    1
  3877   810  1261   ar
  3878   357   328    1
  3879   357   808   ar
  3880  3981  3952    1
  3881  3528  3499    1
  3882  3528  3979   ar
  3883  2622  2593    1
  3884  1716  1687    1
  3885  1716  2167   ar
  3886  3098  3082    1
  3887  3098  3030    1
  3888  1286  1270    1
  3889  1286  1218    1
  3890  4004  3988   ar
  3891  4004  3936    1
  3892   833   817    1
  3893   833   765    1
  3894   380   364    1
  3895   380   312    1
  3896  1739  1723    1
  3897  1739  1671    1
  3898  2192  2176   ar
  3899  2192  2124    1
  3900  3551  3535   ar
  3901  3551  3483    1
  3902  2645  2629   ar
  3903  2645  2577    1
  3904  2653  2627   ar
  3905  2653  2586    1
  3906  4012  3986   ar
  3907  4012  3945    1
  3908  3559  3533   ar
  3909  3559  3492    1
  3910   388   362   ar
  3911   388   321    1
  3912  3106  3080   ar
  3913  3106  3039    1
  3914  2200  2174   ar
  3915  2200  2133    1
  3916   841   815   ar
  3917   841   774    1
  3918  1294  1268   ar
  3919  1294  1227    1
  3920  1747  1721   ar
  3921  1747  1680    1
  3922  3524  3568    1
  3923  2618  2662    1
  3924  2618  3984   ar
  3925  1259  1303    1
  3926  1259  2625   ar
  3927  2165  2209    1
  3928  2165  3531   ar
  3929  1712  1756    1
  3930  1712  3078   ar
  3931   806   850    1
  3932   806  2172   ar
  3933  3977  4021    1
  3934   353   397    1
  3935   353  1719   ar
  3936  3071  3115    1
  3937  3986  3994    1
  3938   362   370    1
  3939  3533  3541    1
  3940  2174  2182    1
  3941   815   823    1
  3942  1268  1276    1
  3943  1721  1729    1
  3944  3080  3088    1
  3945  2627  2635    1
  3946  1723  1731    2
  3947   364   372    2
  3948  3082  3090    2
  3949  1270  1278    2
  3950  3535  3543    1
  3951  2176  2184    1
  3952  2629  2637    1
  3953   817   825    2
  3954  3988  3996    1
  3955  4021  3965    1
  3956  1303  1247    1
  3957  1756  1700    1
  3958  2662  2606    1
  3959  2209  2153    1
  3960   397   341    1
  3961  3568  3512    1
  3962   850   794    1
  3963  3115  3059    1
  3964   350   360    1
  3965   350   346    2
  3966  3521  3531   ar
  3967  3521  3517    1
  3968  2615  2625   ar
  3969  2615  2611    1
  3970  3068  3078   ar
  3971  3068  3064    1
  3972  3974  3984   ar
  3973  3974  3970    1
  3974  1709  1719   ar
  3975  1709  1705    1
  3976   803   813    1
  3977   803   799    2
  3978  2162  2172   ar
  3979  2162  2158    1
  3980  1256  1266    1
  3981  1256  1252    2
  3982  2163  2167   ar
  3983  2163  2159    1
  3984  3522  3526   ar
  3985  3522  3518    1
  3986  2616  2620   ar
  3987  2616  2612    1
  3988  1257  1261   ar
  3989  1257  1253    1
  3990  3975  3979   ar
  3991  3975  3971    1
  3992  3069  3073    1
  3993  3069  3065    2
  3994   804   808   ar
  3995   804   800    1
  3996  1710  1714    1
  3997  1710  1706    2
  3998   351   355    1
  3999   351   347    2
  4000  3994  4040    1
  4001  3994  4050    1
  4002  1729  1775    1
  4003  1729  1785    1
  4004   823   869    1
  4005   823   879    1
  4006  3541  3587    1
  4007  3541  3597    1
  4008  2182  2228    1
  4009  2182  2238    1
  4010  3088  3134    1
  4011  3088  3144    1
  4012  2635  2681    1
  4013  2635  2691    1
  4014  1276  1322    1
  4015  1276  1332    1
  4016   370   416    1
  4017   370   426    1
  4018  3984  3953    1
  4019  2625  2594    1
  4020  2172  2141    1
  4021  3531  3500    1
  4022  3078  3047    1
  4023   360   329    1
  4024   813   782    1
  4025  1719  1688    1
  4026  1266  1235    1
  4027  3979  4022    1
  4028  2167  2210    1
  4029  1261  1304    1
  4030  1714  1757    1
  4031   355   398    1
  4032  3073  3116    1
  4033  2620  2663    1
  4034  3526  3569    1
  4035   808   851    1
  4036   372   424    1
  4037   372   418    1
  4038  2184  2236    1
  4039  2184  2230    1
  4040   825   877    1
  4041   825   871    1
  4042  1731  1783    1
  4043  1731  1777    1
  4044  3996  4048    1
  4045  3996  4042    1
  4046  3090  3142    1
  4047  3090  3136    1
  4048  2637  2689    1
  4049  2637  2683    1
  4050  3543  3595    1
  4051  3543  3589    1
  4052  1278  1330    1
  4053  1278  1324    1
  4054  2228  2121    1
  4055  1775  1668    1
  4056  1322  1215    1
  4057  2681  2574    1
  4058   869   762    1
  4059   416   309    1
  4060  3134  3027    1
  4061  3587  3480    1
  4062  4040  3933    1
  4063  1759  1705    1
  4064  1759  1668    1
  4065  2212  2158    1
  4066  2212  2121    1
  4067  3118  3064    1
  4068  3118  3027    1
  4069  1306  1252    1
  4070  1306  1215    1
  4071  2665  2611    1
  4072  2665  2574    1
  4073  4024  3970    1
  4074  4024  3933    1
  4075  3571  3517    1
  4076  3571  3480    1
  4077   853   799    1
  4078   853   762    1
  4079   400   346    1
  4080   400   309    1
  4081  3597  3476    1
  4082  4050  3929    1
  4083   426   305    1
  4084   879   758    1
  4085  2238  2117    1
  4086  1785  1664    1
  4087  3144  3023    1
  4088  2691  2570    1
  4089  1332  1211    1
  4090  2669  2612    1
  4091  2669  2570    1
  4092  2216  2159    1
  4093  2216  2117    1
  4094  3122  3065    1
  4095  3122  3023    1
  4096  1763  1706    1
  4097  1763  1664    1
  4098   404   347    1
  4099   404   305    1
  4100  1310  1253    1
  4101  1310  1211    1
  4102  4028  3971    1
  4103  4028  3929    1
  4104   857   800    1
  4105   857   758    1
  4106  3575  3518    1
  4107  3575  3476    1
  4108  2236  2117    1
  4109  1783  1664    1
  4110  3142  3023    1
  4111  4048  3929    1
  4112   877   758    1
  4113  3595  3476    1
  4114   424   305    1
  4115  1330  1211    1
  4116  2689  2570    1
  4117   418   309    1
  4118  2230  2121    1
  4119  3589  3480    1
  4120  3136  3027    1
  4121   871   762    1
  4122  2683  2574    1
  4123  1777  1668    1
  4124  1324  1215    1
  4125  4042  3933    1
  4126  3064  3124    1
  4127  2158  2218    1
  4128   799   859    1
  4129   346   406    1
  4130  1705  1765    1
  4131  2611  2671    1
  4132  3970  4030    1
  4133  3517  3577    1
  4134  1252  1312    1
  4135  3971  4025    1
  4136   347   401    1
  4137  2612  2666    1
  4138  1253  1307    1
  4139  3518  3572    1
  4140  2159  2213    1
  4141  1706  1760    1
  4142   800   854    1
  4143  3065  3119    1
  4144  2259  2254    1
  4145  3165  3160    1
  4146   900   895    1
  4147  4071  4066    1
  4148  1353  1348    1
  4149   447   442    1
  4150  1806  1801    1
  4151  3618  3613    1
  4152  2712  2707    1
  4153  4022  3967    1
  4154  4022  3968    1
  4155  2663  2608    1
  4156  2663  2609    1
  4157  3116  3061    1
  4158  3116  3062    1
  4159   851   796    1
  4160   851   797    1
  4161  2210  2155    1
  4162  2210  2156    1
  4163  3569  3514    1
  4164  3569  3515    1
  4165  1304  1249    1
  4166  1304  1250    1
  4167  1757  1702    1
  4168  1757  1703    1
  4169   398   343    1
  4170   398   344    1
  4171  3156  3160    1
  4172  2250  2254    1
  4173  1797  1801    1
  4174  3609  3613    1
  4175   438   442    1
  4176  2703  2707    1
  4177   891   895    1
  4178  1344  1348    1
  4179  4062  4066    1
  4180  1215  1338    1
  4181  1215  1314    1
  4182  1215  1316    1
  4183   762   885    1
  4184   762   861    1
  4185   762   863    1
  4186  3933  4056    1
  4187  3933  4032    1
  4188  3933  4034    1
  4189  3027  3150    1
  4190  3027  3126    1
  4191  3027  3128    1
  4192   309   432    1
  4193   309   408    1
  4194   309   410    1
  4195  2121  2244    1
  4196  2121  2220    1
  4197  2121  2222    1
  4198  3480  3603    1
  4199  3480  3579    1
  4200  3480  3581    1
  4201  1668  1791    1
  4202  1668  1767    1
  4203  1668  1769    1
  4204  2574  2697    1
  4205  2574  2673    1
  4206  2574  2675    1
  4207  2117  2223    1
  4208  2117  2225    1
  4209  2570  2676    1
  4210  2570  2678    1
  4211  3023  3129    1
  4212  3023  3131    1
  4213  3929  4035    1
  4214  3929  4037    1
  4215  1664  1770    1
  4216  1664  1772    1
  4217   758   864    1
  4218   758   866    1
  4219   305   411    1
  4220   305   413    1
  4221  1211  1317    1
  4222  1211  1319    1
  4223  3476  3582    1
  4224  3476  3584    1
  4225  3621  3620    1
  4226   450   449    1
  4227   903   902    1
  4228  1809  1808    1
  4229  2715  2714    1
  4230  2262  2261    1
  4231  1356  1355    1
  4232  4074  4073    1
  4233  3168  3167    1
  4234  2671  2568    1
  4235  1765  1662    1
  4236  3124  3021    1
  4237  2218  2115    1
  4238   859   756    1
  4239  3577  3474    1
  4240  4030  3927    1
  4241  1312  1209    1
  4242   406   303    1
  4243  2666  2573    1
  4244  1307  1214    1
  4245   401   308    1
  4246  3572  3479    1
  4247   854   761    1
  4248  3119  3026    1
  4249  2213  2120    1
  4250  1760  1667    1
  4251  4025  3932    1
  4252   442   449    1
  4253   442   443    1
  4254  2254  2261    1
  4255  2254  2255    1
  4256  4066  4073    1
  4257  4066  4067    1
  4258  1348  1355    1
  4259  1348  1349    1
  4260  3613  3620    1
  4261  3613  3614    1
  4262   895   902    1
  4263   895   896    1
  4264  3160  3167    1
  4265  3160  3161    1
  4266  1801  1808    1
  4267  1801  1802    1
  4268  2707  2714    1
  4269  2707  2708    1
  4270  2149  2207    1
  4271   337   395    1
  4272   790   848    1
  4273  1243  1301    1
  4274  2602  2660    1
  4275  1696  1754    1
  4276  3508  3566    1
  4277  3055  3113    1
  4278  3961  4019    1
  4279  2701  2704    1
  4280   889   892    1
  4281  4060  4063    1
  4282  3607  3610    1
  4283  2248  2251    1
  4284   436   439    1
  4285  1342  1345    1
  4286  1795  1798    1
  4287  3154  3157    1
  4288   432   325    1
  4289  2697  2590    1
  4290  4056  3949    1
  4291  2244  2137    1
  4292   885   778    1
  4293  1338  1231    1
  4294  3603  3496    1
  4295  3150  3043    1
  4296  1791  1684    1
  4297  2714  2718    1
  4298  2714  2710    1
  4299  4073  4077    1
  4300  4073  4069    1
  4301  2261  2265    1
  4302  2261  2257    1
  4303  3167  3171    1
  4304  3167  3163    1
  4305   449   453    1
  4306   449   445    1
  4307  1355  1359    1
  4308  1355  1351    1
  4309  1808  1812    1
  4310  1808  1804    1
  4311  3620  3624    1
  4312  3620  3616    1
  4313   902   906    1
  4314   902   898    1
  4315   408   303    1
  4316  4032  3927    1
  4317  1767  1662    1
  4318  2673  2568    1
  4319  1314  1209    1
  4320  3579  3474    1
  4321  2220  2115    1
  4322  3126  3021    1
  4323   861   756    1
  4324  4035  3932    1
  4325   411   308    1
  4326   864   761    1
  4327  2223  2120    1
  4328  1770  1667    1
  4329  3129  3026    1
  4330  3582  3479    1
  4331  2676  2573    1
  4332  1317  1214    1
  4333  2675  2568    1
  4334  2222  2115    1
  4335  3581  3474    1
  4336   863   756    1
  4337  4034  3927    1
  4338  3128  3021    1
  4339  1769  1662    1
  4340   410   303    1
  4341  1316  1209    1
  4342   338   395    1
  4343  2150  2207    1
  4344  1244  1301    1
  4345  1697  1754    1
  4346   791   848    1
  4347  3962  4019    1
  4348  3056  3113    1
  4349  3509  3566    1
  4350  2603  2660    1
  4351  3113  3107    1
  4352  3566  3560    1
  4353   848   842    1
  4354  2207  2201    1
  4355  1754  1748    1
  4356   395   389    1
  4357  1301  1295    1
  4358  4019  4013    1
  4359  2660  2654    1
  4360  4037  3932    1
  4361  1772  1667    1
  4362  3131  3026    1
  4363  2225  2120    1
  4364  3584  3479    1
  4365   866   761    1
  4366  1319  1214    1
  4367   413   308    1
  4368  2678  2573    1
  4369  3157  3163    1
  4370  3157  3155    2
  4371  4063  4069    1
  4372  4063  4061    2
  4373  1345  1351    1
  4374  1345  1343    2
  4375  3610  3616    1
  4376  3610  3608    2
  4377  2251  2257    1
  4378  2251  2249    2
  4379  2704  2710    1
  4380  2704  2702    2
  4381   892   898    1
  4382   892   890    2
  4383  1798  1804    1
  4384  1798  1796    2
  4385   439   445    1
  4386   439   437    2
  4387  3487  3555    1
  4388  2581  2649    1
  4389  1222  1290    1
  4390  1675  1743    1
  4391  2128  2196    1
  4392   769   837    1
  4393  3940  4008    1
  4394   316   384    1
  4395  3034  3102    1
  4396  2130  2203    1
  4397  3036  3109    1
  4398  3489  3562    1
  4399   771   844    1
  4400  2583  2656    1
  4401  3942  4015    1
  4402   318   391    1
  4403  1224  1297    1
  4404  1677  1750    1
  4405  3938  4006    1
  4406  1673  1741    1
  4407  2579  2647    1
  4408   314   382    1
  4409  3485  3553    1
  4410  3032  3100    1
  4411   767   835    1
  4412  2126  2194    1
  4413  1220  1288    1
  4414  1804  1807    1
  4415  3616  3619    1
  4416  3163  3166    1
  4417  4069  4072    1
  4418  1351  1354    1
  4419   445   448    1
  4420  2257  2260    1
  4421  2710  2713    1
  4422   898   901    1
  4423  3474  3599    1
  4424  3474  3601    1
  4425  3927  4052    1
  4426  3927  4054    1
  4427  1662  1787    1
  4428  1662  1789    1
  4429  1209  1334    1
  4430  1209  1336    1
  4431  3021  3146    1
  4432  3021  3148    1
  4433   303   428    1
  4434   303   430    1
  4435  2568  2693    1
  4436  2568  2695    1
  4437  2115  2240    1
  4438  2115  2242    1
  4439   756   881    1
  4440   756   883    1
  4441  2120  2233    1
  4442  2120  2231    1
  4443  3932  4045    1
  4444  3932  4043    1
  4445   308   421    1
  4446   308   419    1
  4447  3026  3139    1
  4448  3026  3137    1
  4449   761   874    1
  4450   761   872    1
  4451  3479  3592    1
  4452  3479  3590    1
  4453  1667  1780    1
  4454  1667  1778    1
  4455  1214  1327    1
  4456  1214  1325    1
  4457  2573  2686    1
  4458  2573  2684    1
  4459  3102  1748    2
  4460  2649  1295    2
  4461  3555  2201    2
  4462  2196   842    2
  4463  4008  2654    2
  4464  1743   389    2
  4465  4015  3553    2
  4466  2203  1741    2
  4467  2656  2194    2
  4468  3562  3100    2
  4469  1297   835    2
  4470   844   382    2
  4471   890   888    1
  4472   890   894    1
  4473  2702  2700    1
  4474  2702  2706    1
  4475  3155  3153    1
  4476  3155  3159    1
  4477  2249  2247    1
  4478  2249  2253    1
  4479  4061  4059    1
  4480  4061  4065    1
  4481  3608  3606    1
  4482  3608  3612    1
  4483  1343  1341    1
  4484  1343  1347    1
  4485   437   435    1
  4486   437   441    1
  4487  1796  1794    1
  4488  1796  1800    1
  4489  3166  3159    1
  4490  3166  3170    1
  4491  1807  1800    1
  4492  1807  1811    1
  4493   901   894    1
  4494   901   905    1
  4495  4072  4065    1
  4496  4072  4076    1
  4497   448   441    1
  4498   448   452    1
  4499  1354  1347    1
  4500  1354  1358    1
  4501  3619  3612    1
  4502  3619  3623    1
  4503  2713  2706    1
  4504  2713  2717    1
  4505  2260  2253    1
  4506  2260  2264    1
  4507  4065  4068    1
  4508   441   444    1
  4509  1800  1803    1
  4510   894   897    1
  4511  3612  3615    1
  4512  1347  1350    1
  4513  2253  2256    1
  4514  2706  2709    1
  4515  3159  3162    1
  4516  2256  2258    1
  4517  2256  2252    1
  4518  2256  2263    1
  4519  1803  1805    1
  4520  1803  1799    1
  4521  1803  1810    1
  4522   444   446    1
  4523   444   440    1
  4524   444   451    1
  4525  4068  4070    1
  4526  4068  4064    1
  4527  4068  4075    1
  4528   897   899    1
  4529   897   893    1
  4530   897   904    1
  4531  3615  3617    1
  4532  3615  3611    1
  4533  3615  3622    1
  4534  3162  3164    1
  4535  3162  3158    1
  4536  3162  3169    1
  4537  1350  1352    1
  4538  1350  1346    1
  4539  1350  1357    1
  4540  2709  2711    1
  4541  2709  2705    1
  4542  2709  2716    1
