@<TRIPOS>MOLECULE
Lattice="32.018782 0.0 0.0 -14.043870532898428 28.753623292648026 0.0 -8.625062807759862 -14.478403582935226 26.22054754850901" Properties=species:S:1:pos:R:3 i=220 E=-1376.273350195 pbc="T T T"
 200 200 0 0 0
SMALL
GASTEIGER

@<TRIPOS>ATOM
      1 H           4.8963    1.3583   15.1339 H       1  UNL1        0.0464
      2 H           4.0239    2.5966   16.0489 H       1  UNL1        0.0464
      3 C           4.6553    2.4272   15.1715 C.3     1  UNL1        0.0135
      4 H           6.5108    2.9111   16.0678 H       1  UNL1        0.0280
      5 H           1.9288    3.1991   14.9618 H       1  UNL1        0.0746
      6 N           3.8017    2.7090   13.9981 N.pl3   1  UNL1       -0.3135
      7 C           5.9048    3.3021   15.2348 C.3     1  UNL1       -0.0374
      8 C           2.5035    3.0531   14.0554 C.3     1  UNL1        0.1250
      9 H           6.5230    3.1502   14.3382 H       1  UNL1        0.0280
     10 H           4.9630    4.9027   16.3388 H       1  UNL1        0.0263
     11 C           5.6136    4.7915   15.4580 C.3     1  UNL1       -0.0545
     12 H           7.4686    5.2565   16.5201 H       1  UNL1        0.0230
     13 H           5.0401    5.1898   14.6085 H       1  UNL1        0.0263
     14 C           6.8995    5.6079   15.6475 C.3     1  UNL1       -0.0652
     15 H           7.5611    5.5272   14.7742 H       1  UNL1        0.0230
     16 H           6.6833    6.6739   15.8016 H       1  UNL1        0.0230
     17 C           4.1795    2.6167   12.6699 C.2     1  UNL1        0.0074
     18 N           2.0403    3.1823   12.7970 N.pl3   1  UNL1       -0.3166
     19 H          -0.0014    3.2876   13.2545 H       1  UNL1        0.0428
     20 H           0.3626    3.0468   11.5271 H       1  UNL1        0.0428
     21 C           3.0767    2.9186   11.9164 C.2     1  UNL1        0.0072
     22 C           0.6700    3.5725   12.4382 C.3     1  UNL1        0.0020
     23 H           2.9408    2.9614   10.8434 H       1  UNL1        0.0793
     24 H           0.6149    4.6547   12.2734 H       1  UNL1        0.0428
     25 H           5.1802    2.3244   12.3786 H       1  UNL1        0.0793
     26 H           0.5838   -5.8810   28.2442 H       2  UNL2        0.0464
     27 H          -0.2887   -4.6426   29.1592 H       2  UNL2        0.0464
     28 C           0.3428   -4.8120   28.2817 C.3     2  UNL2        0.0135
     29 H           2.1983   -4.3281   29.1781 H       2  UNL2        0.0280
     30 H          -2.3837   -4.0401   28.0720 H       2  UNL2        0.0746
     31 N          -0.5109   -4.5302   27.1084 N.pl3   2  UNL2       -0.3135
     32 C           1.5922   -3.9371   28.3451 C.3     2  UNL2       -0.0374
     33 C          -1.8091   -4.1861   27.1657 C.3     2  UNL2        0.1250
     34 H           2.2105   -4.0890   27.4485 H       2  UNL2        0.0280
     35 H           0.6505   -2.3365   29.4491 H       2  UNL2        0.0263
     36 C           1.3010   -2.4477   28.5682 C.3     2  UNL2       -0.0545
     37 H           3.1560   -1.9827   29.6304 H       2  UNL2        0.0230
     38 H           0.7275   -2.0494   27.7188 H       2  UNL2        0.0263
     39 C           2.5870   -1.6313   28.7578 C.3     2  UNL2       -0.0652
     40 H           3.2486   -1.7120   27.8845 H       2  UNL2        0.0230
     41 H           2.3708   -0.5654   28.9119 H       2  UNL2        0.0230
     42 C          -0.1331   -4.6225   25.7801 C.2     2  UNL2        0.0074
     43 N          -2.2722   -4.0569   25.9073 N.pl3   2  UNL2       -0.3166
     44 H          -4.3139   -3.9516   26.3647 H       2  UNL2        0.0428
     45 H          -3.9500   -4.1924   24.6373 H       2  UNL2        0.0428
     46 C          -1.2358   -4.3206   25.0267 C.2     2  UNL2        0.0072
     47 C          -3.6425   -3.6668   25.5485 C.3     2  UNL2        0.0020
     48 H          -1.3717   -4.2778   23.9537 H       2  UNL2        0.0793
     49 H          -3.6976   -2.5845   25.3836 H       2  UNL2        0.0428
     50 H           0.8677   -4.9148   25.4888 H       2  UNL2        0.0793
     51 H          -2.1256   15.7351   15.1339 H       3  UNL3        0.0464
     52 H          -2.9981   16.9734   16.0489 H       3  UNL3        0.0464
     53 C          -2.3666   16.8040   15.1715 C.3     3  UNL3        0.0135
     54 H          -0.5111   17.2879   16.0678 H       3  UNL3        0.0280
     55 H          -5.0931   17.5759   14.9618 H       3  UNL3        0.0746
     56 N          -3.2203   17.0858   13.9981 N.pl3   3  UNL3       -0.3135
     57 C          -1.1172   17.6789   15.2348 C.3     3  UNL3       -0.0374
     58 C          -4.5185   17.4299   14.0554 C.3     3  UNL3        0.1250
     59 H          -0.4989   17.5270   14.3382 H       3  UNL3        0.0280
     60 H          -2.0589   19.2796   16.3388 H       3  UNL3        0.0263
     61 C          -1.4084   19.1683   15.4580 C.3     3  UNL3       -0.0545
     62 H           0.4466   19.6333   16.5201 H       3  UNL3        0.0230
     63 H          -1.9819   19.5667   14.6085 H       3  UNL3        0.0263
     64 C          -0.1224   19.9847   15.6475 C.3     3  UNL3       -0.0652
     65 H           0.5392   19.9040   14.7742 H       3  UNL3        0.0230
     66 H          -0.3386   21.0507   15.8016 H       3  UNL3        0.0230
     67 C          -2.8425   16.9935   12.6699 C.2     3  UNL3        0.0074
     68 N          -4.9816   17.5591   12.7970 N.pl3   3  UNL3       -0.3166
     69 H          -7.0233   17.6644   13.2545 H       3  UNL3        0.0428
     70 H          -6.6594   17.4236   11.5271 H       3  UNL3        0.0428
     71 C          -3.9452   17.2954   11.9164 C.2     3  UNL3        0.0072
     72 C          -6.3519   17.9493   12.4382 C.3     3  UNL3        0.0020
     73 H          -4.0811   17.3382   10.8434 H       3  UNL3        0.0793
     74 H          -6.4070   19.0315   12.2734 H       3  UNL3        0.0428
     75 H          -1.8417   16.7012   12.3786 H       3  UNL3        0.0793
     76 H          -6.4382    8.4959   28.2442 H       4  UNL4        0.0464
     77 H          -7.3106    9.7342   29.1592 H       4  UNL4        0.0464
     78 C          -6.6791    9.5648   28.2817 C.3     4  UNL4        0.0135
     79 H          -4.8237   10.0487   29.1781 H       4  UNL4        0.0280
     80 H          -9.4057   10.3367   28.0720 H       4  UNL4        0.0746
     81 N          -7.5328    9.8466   27.1084 N.pl3   4  UNL4       -0.3135
     82 C          -5.4297   10.4397   28.3451 C.3     4  UNL4       -0.0374
     83 C          -8.8310   10.1907   27.1657 C.3     4  UNL4        0.1250
     84 H          -4.8114   10.2878   27.4485 H       4  UNL4        0.0280
     85 H          -6.3714   12.0404   29.4491 H       4  UNL4        0.0263
     86 C          -5.7209   11.9291   28.5682 C.3     4  UNL4       -0.0545
     87 H          -3.8659   12.3941   29.6304 H       4  UNL4        0.0230
     88 H          -6.2944   12.3275   27.7188 H       4  UNL4        0.0263
     89 C          -4.4349   12.7455   28.7578 C.3     4  UNL4       -0.0652
     90 H          -3.7733   12.6648   27.8845 H       4  UNL4        0.0230
     91 H          -4.6511   13.8115   28.9119 H       4  UNL4        0.0230
     92 C          -7.1550    9.7543   25.7801 C.2     4  UNL4        0.0074
     93 N          -9.2942   10.3199   25.9073 N.pl3   4  UNL4       -0.3166
     94 H         -11.3358   10.4252   26.3647 H       4  UNL4        0.0428
     95 H         -10.9719   10.1844   24.6373 H       4  UNL4        0.0428
     96 C          -8.2577   10.0562   25.0267 C.2     4  UNL4        0.0072
     97 C         -10.6645   10.7101   25.5485 C.3     4  UNL4        0.0020
     98 H          -8.3937   10.0990   23.9537 H       4  UNL4        0.0793
     99 H         -10.7196   11.7923   25.3836 H       4  UNL4        0.0428
    100 H          -6.1542    9.4620   25.4888 H       4  UNL4        0.0793
    101 H          20.9057    1.3583   15.1339 H       5  UNL5        0.0464
    102 H          20.0333    2.5966   16.0489 H       5  UNL5        0.0464
    103 C          20.6647    2.4272   15.1715 C.3     5  UNL5        0.0135
    104 H          22.5202    2.9111   16.0678 H       5  UNL5        0.0280
    105 H          17.9382    3.1991   14.9618 H       5  UNL5        0.0746
    106 N          19.8111    2.7090   13.9981 N.pl3   5  UNL5       -0.3135
    107 C          21.9142    3.3021   15.2348 C.3     5  UNL5       -0.0374
    108 C          18.5129    3.0531   14.0554 C.3     5  UNL5        0.1250
    109 H          22.5324    3.1502   14.3382 H       5  UNL5        0.0280
    110 H          20.9724    4.9027   16.3388 H       5  UNL5        0.0263
    111 C          21.6229    4.7915   15.4580 C.3     5  UNL5       -0.0545
    112 H          23.4779    5.2565   16.5201 H       5  UNL5        0.0230
    113 H          21.0494    5.1898   14.6085 H       5  UNL5        0.0263
    114 C          22.9089    5.6079   15.6475 C.3     5  UNL5       -0.0652
    115 H          23.5705    5.5272   14.7742 H       5  UNL5        0.0230
    116 H          22.6927    6.6739   15.8016 H       5  UNL5        0.0230
    117 C          20.1889    2.6167   12.6699 C.2     5  UNL5        0.0074
    118 N          18.0497    3.1823   12.7970 N.pl3   5  UNL5       -0.3166
    119 H          16.0080    3.2876   13.2545 H       5  UNL5        0.0428
    120 H          16.3719    3.0468   11.5271 H       5  UNL5        0.0428
    121 C          19.0861    2.9186   11.9164 C.2     5  UNL5        0.0072
    122 C          16.6794    3.5725   12.4382 C.3     5  UNL5        0.0020
    123 H          18.9502    2.9614   10.8434 H       5  UNL5        0.0793
    124 H          16.6243    4.6547   12.2734 H       5  UNL5        0.0428
    125 H          21.1896    2.3244   12.3786 H       5  UNL5        0.0793
    126 H          16.5932   -5.8810   28.2442 H       6  UNL6        0.0464
    127 H          15.7207   -4.6426   29.1592 H       6  UNL6        0.0464
    128 C          16.3522   -4.8120   28.2817 C.3     6  UNL6        0.0135
    129 H          18.2076   -4.3281   29.1781 H       6  UNL6        0.0280
    130 H          13.6256   -4.0401   28.0720 H       6  UNL6        0.0746
    131 N          15.4985   -4.5302   27.1084 N.pl3   6  UNL6       -0.3135
    132 C          17.6016   -3.9371   28.3451 C.3     6  UNL6       -0.0374
    133 C          14.2003   -4.1861   27.1657 C.3     6  UNL6        0.1250
    134 H          18.2199   -4.0890   27.4485 H       6  UNL6        0.0280
    135 H          16.6599   -2.3365   29.4491 H       6  UNL6        0.0263
    136 C          17.3104   -2.4477   28.5682 C.3     6  UNL6       -0.0545
    137 H          19.1654   -1.9827   29.6304 H       6  UNL6        0.0230
    138 H          16.7369   -2.0494   27.7188 H       6  UNL6        0.0263
    139 C          18.5964   -1.6313   28.7578 C.3     6  UNL6       -0.0652
    140 H          19.2580   -1.7120   27.8845 H       6  UNL6        0.0230
    141 H          18.3802   -0.5654   28.9119 H       6  UNL6        0.0230
    142 C          15.8763   -4.6225   25.7801 C.2     6  UNL6        0.0074
    143 N          13.7372   -4.0569   25.9073 N.pl3   6  UNL6       -0.3166
    144 H          11.6955   -3.9516   26.3647 H       6  UNL6        0.0428
    145 H          12.0594   -4.1924   24.6373 H       6  UNL6        0.0428
    146 C          14.7736   -4.3206   25.0267 C.2     6  UNL6        0.0072
    147 C          12.3669   -3.6668   25.5485 C.3     6  UNL6        0.0020
    148 H          14.6376   -4.2778   23.9537 H       6  UNL6        0.0793
    149 H          12.3117   -2.5845   25.3836 H       6  UNL6        0.0428
    150 H          16.8771   -4.9148   25.4888 H       6  UNL6        0.0793
    151 H          13.8838   15.7351   15.1339 H       7  UNL7        0.0464
    152 H          13.0113   16.9734   16.0489 H       7  UNL7        0.0464
    153 C          13.6428   16.8040   15.1715 C.3     7  UNL7        0.0135
    154 H          15.4982   17.2879   16.0678 H       7  UNL7        0.0280
    155 H          10.9162   17.5759   14.9618 H       7  UNL7        0.0746
    156 N          12.7891   17.0858   13.9981 N.pl3   7  UNL7       -0.3135
    157 C          14.8922   17.6789   15.2348 C.3     7  UNL7       -0.0374
    158 C          11.4909   17.4299   14.0554 C.3     7  UNL7        0.1250
    159 H          15.5105   17.5270   14.3382 H       7  UNL7        0.0280
    160 H          13.9505   19.2796   16.3388 H       7  UNL7        0.0263
    161 C          14.6010   19.1683   15.4580 C.3     7  UNL7       -0.0545
    162 H          16.4560   19.6333   16.5201 H       7  UNL7        0.0230
    163 H          14.0275   19.5667   14.6085 H       7  UNL7        0.0263
    164 C          15.8870   19.9847   15.6475 C.3     7  UNL7       -0.0652
    165 H          16.5486   19.9040   14.7742 H       7  UNL7        0.0230
    166 H          15.6708   21.0507   15.8016 H       7  UNL7        0.0230
    167 C          13.1669   16.9935   12.6699 C.2     7  UNL7        0.0074
    168 N          11.0278   17.5591   12.7970 N.pl3   7  UNL7       -0.3166
    169 H           8.9861   17.6644   13.2545 H       7  UNL7        0.0428
    170 H           9.3500   17.4236   11.5271 H       7  UNL7        0.0428
    171 C          12.0642   17.2954   11.9164 C.2     7  UNL7        0.0072
    172 C           9.6575   17.9493   12.4382 C.3     7  UNL7        0.0020
    173 H          11.9282   17.3382   10.8434 H       7  UNL7        0.0793
    174 H           9.6023   19.0315   12.2734 H       7  UNL7        0.0428
    175 H          14.1677   16.7012   12.3786 H       7  UNL7        0.0793
    176 H           9.5712    8.4959   28.2442 H       8  UNL8        0.0464
    177 H           8.6988    9.7342   29.1592 H       8  UNL8        0.0464
    178 C           9.3303    9.5648   28.2817 C.3     8  UNL8        0.0135
    179 H          11.1857   10.0487   29.1781 H       8  UNL8        0.0280
    180 H           6.6037   10.3367   28.0720 H       8  UNL8        0.0746
    181 N           8.4766    9.8466   27.1084 N.pl3   8  UNL8       -0.3135
    182 C          10.5797   10.4397   28.3451 C.3     8  UNL8       -0.0374
    183 C           7.1784   10.1907   27.1657 C.3     8  UNL8        0.1250
    184 H          11.1979   10.2878   27.4485 H       8  UNL8        0.0280
    185 H           9.6380   12.0404   29.4491 H       8  UNL8        0.0263
    186 C          10.2885   11.9291   28.5682 C.3     8  UNL8       -0.0545
    187 H          12.1435   12.3941   29.6304 H       8  UNL8        0.0230
    188 H           9.7150   12.3275   27.7188 H       8  UNL8        0.0263
    189 C          11.5745   12.7455   28.7578 C.3     8  UNL8       -0.0652
    190 H          12.2361   12.6648   27.8845 H       8  UNL8        0.0230
    191 H          11.3582   13.8115   28.9119 H       8  UNL8        0.0230
    192 C           8.8544    9.7543   25.7801 C.2     8  UNL8        0.0074
    193 N           6.7152   10.3199   25.9073 N.pl3   8  UNL8       -0.3166
    194 H           4.6736   10.4252   26.3647 H       8  UNL8        0.0428
    195 H           5.0375   10.1844   24.6373 H       8  UNL8        0.0428
    196 C           7.7517   10.0562   25.0267 C.2     8  UNL8        0.0072
    197 C           5.3449   10.7101   25.5485 C.3     8  UNL8        0.0020
    198 H           7.6157   10.0990   23.9537 H       8  UNL8        0.0793
    199 H           5.2898   11.7923   25.3836 H       8  UNL8        0.0428
    200 H           9.8552    9.4620   25.4888 H       8  UNL8        0.0793
@<TRIPOS>BOND
     1   123   121    1
     2    73    71    1
     3    23    21    1
     4   173   171    1
     5   120   122    1
     6    20    22    1
     7   170   172    1
     8    70    72    1
     9    21    17    2
    10    21    18    1
    11   121   117    2
    12   121   118    1
    13   171   167    2
    14   171   168    1
    15    71    67    2
    16    71    68    1
    17    74    72    1
    18   174   172    1
    19   124   122    1
    20    24    22    1
    21    75    67    1
    22   125   117    1
    23   175   167    1
    24    25    17    1
    25   172   168    1
    26   172   169    1
    27    22    18    1
    28    22    19    1
    29    72    68    1
    30    72    69    1
    31   122   118    1
    32   122   119    1
    33    67    56    1
    34   167   156    1
    35    17     6    1
    36   117   106    1
    37    68    58    1
    38   118   108    1
    39    18     8    1
    40   168   158    1
    41     6     8    1
    42     6     3    1
    43   156   158    1
    44   156   153    1
    45    56    58    1
    46    56    53    1
    47   106   108    1
    48   106   103    1
    49    58    55    1
    50   158   155    1
    51     8     5    1
    52   108   105    1
    53   109   107    1
    54     9     7    1
    55    59    57    1
    56   159   157    1
    57    13    11    1
    58   113   111    1
    59   163   161    1
    60    63    61    1
    61    65    64    1
    62   115   114    1
    63   165   164    1
    64    15    14    1
    65   151   153    1
    66   101   103    1
    67     1     3    1
    68    51    53    1
    69   103   107    1
    70   103   102    1
    71    53    57    1
    72    53    52    1
    73     3     7    1
    74     3     2    1
    75   153   157    1
    76   153   152    1
    77    57    61    1
    78    57    54    1
    79     7    11    1
    80     7     4    1
    81   157   161    1
    82   157   154    1
    83   107   111    1
    84   107   104    1
    85    61    64    1
    86    61    60    1
    87   161   164    1
    88   161   160    1
    89    11    14    1
    90    11    10    1
    91   111   114    1
    92   111   110    1
    93   164   166    1
    94   164   162    1
    95    14    16    1
    96    14    12    1
    97   114   116    1
    98   114   112    1
    99    64    66    1
   100    64    62    1
   101   198   196    1
   102   148   146    1
   103    48    46    1
   104    98    96    1
   105   195   197    1
   106    45    47    1
   107    95    97    1
   108   145   147    1
   109    46    42    2
   110    46    43    1
   111   196   192    2
   112   196   193    1
   113   146   142    2
   114   146   143    1
   115    96    92    2
   116    96    93    1
   117   199   197    1
   118    49    47    1
   119    99    97    1
   120   149   147    1
   121    50    42    1
   122   200   192    1
   123   150   142    1
   124   100    92    1
   125    47    43    1
   126    47    44    1
   127    97    93    1
   128    97    94    1
   129   197   193    1
   130   197   194    1
   131   147   143    1
   132   147   144    1
   133    42    31    1
   134   192   181    1
   135    92    81    1
   136   142   131    1
   137   193   183    1
   138    43    33    1
   139    93    83    1
   140   143   133    1
   141    31    33    1
   142    31    28    1
   143   181   183    1
   144   181   178    1
   145   131   133    1
   146   131   128    1
   147    81    83    1
   148    81    78    1
   149    83    80    1
   150    33    30    1
   151   183   180    1
   152   133   130    1
   153   134   132    1
   154    34    32    1
   155    84    82    1
   156   184   182    1
   157   138   136    1
   158    38    36    1
   159   188   186    1
   160    88    86    1
   161    40    39    1
   162    90    89    1
   163   140   139    1
   164   190   189    1
   165    26    28    1
   166    76    78    1
   167   126   128    1
   168   176   178    1
   169    28    32    1
   170    28    27    1
   171   178   182    1
   172   178   177    1
   173    78    82    1
   174    78    77    1
   175   128   132    1
   176   128   127    1
   177    32    36    1
   178    32    29    1
   179   182   186    1
   180   182   179    1
   181   132   136    1
   182   132   129    1
   183    82    86    1
   184    82    79    1
   185    36    39    1
   186    36    35    1
   187   186   189    1
   188   186   185    1
   189    86    89    1
   190    86    85    1
   191   136   139    1
   192   136   135    1
   193   189   191    1
   194   189   187    1
   195    89    91    1
   196    89    87    1
   197   139   141    1
   198   139   137    1
   199    39    41    1
   200    39    37    1
