@<TRIPOS>MOLECULE
Lattice="48.01131394949155 -0.19818993299999998 0.31709931599999996 -18.410584635028748 45.496376096167864 -0.004229376 -14.566580986253813 -22.43922556439101 40.082996327805056" Properties=species:S:1:pos:R:3 i=164 E=-1709.3395143273 pbc="T T T"
 4482 4920 0 0 0
SMALL
GASTEIGER

@<TRIPOS>ATOM
      1 TI         -2.9699    2.3490   11.5235 Ti      1  UNL1        0.0000
      2 TI          8.1081    5.4118    1.9128 Ti      1  UNL1        0.0000
      3 TI          1.5750   -0.9658    9.6276 Ti      1  UNL1        0.0000
      4 TI          3.5158    8.7255    3.8044 Ti      1  UNL1        0.0000
      5 TI          1.8432    9.6140    1.8373 Ti      1  UNL1        0.0000
      6 TI          3.0462   -2.1305   11.5968 Ti      1  UNL1        0.0000
      7 TI         -1.5227    1.0487    9.6244 Ti      1  UNL1        0.0000
      8 TI          6.3922    6.4555    3.7615 Ti      1  UNL1        0.0000
      9 H           3.6779    1.7170    7.1475 H       1  UNL1        0.0000
     10 H          -0.0077   -3.9529    7.4332 H       1  UNL1        0.0000
     11 H           5.1418   11.5113    6.0344 H       1  UNL1        0.0000
     12 H          -2.9574    6.3693   11.3553 H       1  UNL1        0.0000
     13 H           7.9342    1.2817    2.2224 H       1  UNL1        0.0000
     14 H          -6.7229    0.7366   11.1746 H       1  UNL1        0.0000
     15 H          11.7806    6.8896    2.1016 H       1  UNL1        0.0000
     16 H           3.2775   -6.2867   11.2923 H       1  UNL1        0.0000
     17 H          -2.0603    8.2301    2.1035 H       1  UNL1        0.0000
     18 H           4.8172    3.6745    6.0619 H       1  UNL1        0.0000
     19 H           0.0639    4.0187    7.4479 H       1  UNL1        0.0000
     20 H          -3.6741   -1.7201    7.2442 H       1  UNL1        0.0000
     21 H           2.7089    8.1903   -0.0835 H       1  UNL1        0.0000
     22 H           7.0880    6.8759    0.0873 H       1  UNL1        0.0000
     23 H           0.4495    0.7092   11.1934 H       1  UNL1        0.0000
     24 H           4.4477    6.9754    2.2085 H       1  UNL1        0.0000
     25 H           3.6838   -2.3108    6.1491 H       1  UNL1        0.0000
     26 H           1.3447    9.8774    7.3050 H       1  UNL1        0.0000
     27 H          -5.9986    4.1588    9.1195 H       1  UNL1        0.0000
     28 H          10.9444    3.4612    4.3936 H       1  UNL1        0.0000
     29 H          -3.5354    2.5097    6.0062 H       1  UNL1        0.0000
     30 H          -1.0851   11.8025    4.3243 H       1  UNL1        0.0000
     31 H           0.0187    6.2155    6.5342 H       1  UNL1        0.0000
     32 H           1.4321    6.9796    5.8373 H       1  UNL1        0.0000
     33 H           1.6785   12.8316    2.6250 H       1  UNL1        0.0000
     34 H           7.8981   -0.7724    3.4220 H      40  UNL40       0.0000
     35 H           7.4758   -0.2708   10.0486 H       1  UNL1        0.0000
     36 H           6.1246   -1.0787   10.8162 H       1  UNL1        0.0000
     37 H          10.0001    9.0633    6.3961 H       1  UNL1        0.0000
     38 H           8.6285    8.3317    5.5873 H       1  UNL1        0.0000
     39 H           8.1275    5.4218    8.6413 H       1  UNL1        0.0000
     40 H           7.6319    5.6884    6.9780 H       1  UNL1        0.0000
     41 H           7.0422   -4.8968    9.5952 H       1  UNL1        0.0000
     42 H           5.7064   -3.9044   10.1562 H       1  UNL1        0.0000
     43 C           8.7801    4.9103    4.7582 C.3     1  UNL1        0.0000
     44 C          -3.8028    2.7160    8.7045 C.2     1  UNL1        0.0000
     45 C           3.9416   -2.5492    8.7584 C.2     1  UNL1        0.0000
     46 C           1.0562   10.1569    4.6723 C.3     1  UNL1        0.0000
     47 C           9.6127    4.3379    5.8265 C.ar    1  UNL1        0.0000
     48 C          -4.6939    3.2918    7.6602 C.2     1  UNL1        0.0000
     49 C           4.7920   -3.2053    7.7518 C.2     1  UNL1        0.0000
     50 C           0.2103   10.7807    5.7287 C.ar    1  UNL1        0.0000
     51 C           9.3122    4.5273    7.2151 C.ar    1  UNL1        0.0000
     52 C          -4.4081    3.0896    6.2926 C.3     1  UNL1        0.0000
     53 C           5.8784   -4.0691    8.1126 C.3     1  UNL1        0.0000
     54 C          -0.8686   11.6198    5.3731 C.ar    1  UNL1        0.0000
     55 C           0.5070   10.5291    7.0640 C.ar    1  UNL1        0.0000
     56 C           4.5167   -2.9698    6.3847 C.3     1  UNL1        0.0000
     57 C          10.7508    3.5845    5.4567 C.ar    1  UNL1        0.0000
     58 C          -5.8061    4.0264    8.0566 C.3     1  UNL1        0.0000
     59 C           3.1003    4.9551    6.1491 C.ar    1  UNL1        0.0000
     60 C           1.7993    2.7702    7.3445 C.ar    1  UNL1        0.0000
     61 C           6.8913   10.2727    6.0546 C.ar    1  UNL1        0.0000
     62 C          -1.7767   -2.7476    7.3994 C.2     1  UNL1        0.0000
     63 C           8.0467    1.3640    0.0879 C.2     1  UNL1        0.0000
     64 C           1.7817   13.7266    0.1310 C.2     1  UNL1        0.0000
     65 C          11.7334    6.7935   -0.0382 C.2     1  UNL1        0.0000
     66 C          -1.8590    8.2964   -0.0492 C.2     1  UNL1        0.0000
     67 C           3.8228    6.0344    5.4547 C.3     1  UNL1        0.0000
     68 C           1.1023    1.6225    7.9972 C.3     1  UNL1        0.0000
     69 C           6.2183    9.2339    5.2665 C.3     1  UNL1        0.0000
     70 C          -1.1311   -1.6563    8.1807 C.2     1  UNL1        0.0000
     71 C           8.1003    2.8530    0.0911 C.2     1  UNL1        0.0000
     72 C           1.7632   12.2588    0.0849 C.2     1  UNL1        0.0000
     73 C          10.4444    6.0844   -0.0134 C.2     1  UNL1        0.0000
     74 C          -0.5608    9.0319   -0.0126 C.2     1  UNL1        0.0000
     75 C           1.7306    5.0829    6.5494 C.ar    1  UNL1        0.0000
     76 C           3.1556    2.6528    6.9717 C.ar    1  UNL1        0.0000
     77 C           6.1713   11.4460    6.3780 C.ar    1  UNL1        0.0000
     78 C          -1.0408   -3.8877    7.0963 C.3     1  UNL1        0.0000
     79 C           7.9563    0.6973    1.3045 C.3     1  UNL1        0.0000
     80 C          -2.9827    6.9550   12.2712 C.ar    1  UNL1        0.0000
     81 C          12.3117    7.1712    1.1955 C.2     1  UNL1        0.0000
     82 C          -7.2552    0.4577   12.0823 C.3     1  UNL1        0.0000
     83 C           8.2536   10.1392    6.4782 C.ar    1  UNL1        0.0000
     84 C          -3.1221   -2.6210    6.9921 C.3     1  UNL1        0.0000
     85 C           3.7790    3.7362    6.3796 C.ar    1  UNL1        0.0000
     86 C           1.1059    3.9582    7.1384 C.ar    1  UNL1        0.0000
     87 C           7.5388   -0.3367   12.1001 C.ar    1  UNL1        0.0000
     88 C          -2.5045    7.9421    1.1553 C.3     1  UNL1        0.0000
     89 C           3.2129   -6.8294   12.2310 C.3     1  UNL1        0.0000
     90 C           1.7419   14.4519    1.3662 C.2     1  UNL1        0.0000
     91 N           1.0237    6.2482    6.4177 N.pl3   1  UNL1        0.0000
     92 N           1.6083   13.8462    2.5831 N.pl3   1  UNL1        0.0000
     93 N           7.0707   -0.7054   10.8681 N.pl3   1  UNL1        0.0000
     94 N           9.0008    9.0179    6.2417 N.pl3   1  UNL1        0.0000
     95 N           8.2102    5.1998    7.6577 N.pl3   1  UNL1        0.0000
     96 N           6.1905   -4.3859    9.4025 N.3     1  UNL1        0.0000
     97 O           7.7605    5.6326    5.0831 O.3     1  UNL1        0.0000
     98 O          -2.8569    1.9387    8.3329 O.2     1  UNL1        0.0000
     99 O           4.2148   -2.7326   10.0094 O.2     1  UNL1        0.0000
    100 O           0.7252   10.3251    3.4504 O.3     1  UNL1        0.0000
    101 O           2.0798    9.4767    5.0517 O.3     1  UNL1        0.0000
    102 O           2.9667   -1.8079    8.3739 O.2     1  UNL1        0.0000
    103 O           9.0964    4.6803    3.5318 O.3     1  UNL1        0.0000
    104 O          -4.0321    3.0326    9.9274 O.2     1  UNL1        0.0000
    105 O           6.4251    5.0030    2.7339 O.3     1  UNL1        0.0000
    106 O          -1.3824    2.5928   10.6194 O.3     1  UNL1        0.0000
    107 O           7.8384    7.0194    2.6670 O.3     1  UNL1        0.0000
    108 O          -2.8710    0.6444   10.8036 O.3     1  UNL1        0.0000
    109 O           1.5689   -2.5387   10.6264 O.3     1  UNL1        0.0000
    110 O           3.3713   10.1927    2.7631 O.3     1  UNL1        0.0000
    111 O           2.8055   -0.4275   10.8795 O.3     1  UNL1        0.0000
    112 O           2.2145    8.0250    2.6052 O.3     1  UNL1        0.0000
    113 O           5.0664    5.8463    5.1648 O.3     1  UNL1        0.0000
    114 O          -0.1572    1.7024    8.1845 O.3     1  UNL1        0.0000
    115 O           6.8473    8.1743    4.9401 O.3     1  UNL1        0.0000
    116 O          -1.8591   -0.6837    8.5683 O.2     1  UNL1        0.0000
    117 O           3.2266   -4.0240   12.3207 O.2     1  UNL1        0.0000
    118 O           1.6688   11.5916    1.1731 O.2     1  UNL1        0.0000
    119 O           5.0220   -1.7008   12.2383 O.3     1  UNL1        0.0000
    120 O          -0.0240    9.1971    1.1417 O.2     1  UNL1        0.0000
    121 O           4.9890    9.4299    4.9129 O.3     1  UNL1        0.0000
    122 O           0.1163   -1.7508    8.4319 O.2     1  UNL1        0.0000
    123 O           3.2003    7.1127    5.1522 O.3     1  UNL1        0.0000
    124 O           1.8226    0.6204    8.3395 O.3     1  UNL1        0.0000
    125 O           9.9245    5.7986    1.1311 O.2     1  UNL1        0.0000
    126 O          -4.9124    1.9602   12.2540 O.2     1  UNL1        0.0000
    127 O           8.1541    3.4536    1.2090 O.2     1  UNL1        0.0000
    128 O          -2.9988    4.1960   12.3014 O.3     1  UNL1        0.0000
    129 O           4.8996    7.4993    2.8945 O.3     1  UNL1        0.0000
    130 O           0.0781    0.1341   10.5004 O.3     1  UNL1        0.0000
    131 O           7.3161    5.9290    0.0799 O.3     1  UNL1        0.0000
    132 O           2.5397    9.1468   -0.0049 O.3     1  UNL1        0.0000
    133 N           2.0317    2.5579   13.6739 N.pl3   3  UNL3        0.0000
    134 N           2.9588    2.5295   11.6924 N.pl3   3  UNL3        0.0000
    135 C           1.0438    2.8808   12.7573 C.2     3  UNL3        0.0000
    136 C           1.6275    2.8667   11.5148 C.2     3  UNL3        0.0000
    137 C           4.4144    3.7746   10.1055 C.3     3  UNL3        0.0000
    138 C           1.8801    2.5491   15.1394 C.3     3  UNL3        0.0000
    139 C           3.1837    2.3440   13.0052 C.3     3  UNL3        0.0000
    140 C           3.9710    2.4075   10.6190 C.3     3  UNL3        0.0000
    141 H           0.0195    3.0711   13.0570 H       3  UNL3        0.0000
    142 H           1.1977    3.0659   10.5407 H       3  UNL3        0.0000
    143 H           3.5751    4.3241    9.6594 H       3  UNL3        0.0000
    144 H           2.3418    3.4508   15.5569 H       3  UNL3        0.0000
    145 H           4.8554    4.3827   10.9050 H       3  UNL3        0.0000
    146 H           0.8106    2.5454   15.3731 H       3  UNL3        0.0000
    147 H           5.1631    3.6351    9.3130 H       3  UNL3        0.0000
    148 H           3.5176    1.7973    9.8285 H       3  UNL3        0.0000
    149 H           2.3498    1.6466   15.5504 H       3  UNL3        0.0000
    150 H           4.1267    2.0532   13.4512 H       3  UNL3        0.0000
    151 H           4.8007    1.8266   11.0392 H       3  UNL3        0.0000
    152 N           8.5334   10.8277   16.4817 N.3     4  UNL4        0.0000
    153 C           6.5698   11.3779   14.5669 C.3     4  UNL4        0.0000
    154 C           8.6985    8.2003   16.0559 C.3     4  UNL4        0.0000
    155 O           8.6972   12.9128   14.9217 O.2     4  UNL4        0.0000
    156 O           6.9973   12.7211   16.7602 O.2     4  UNL4        0.0000
    157 O          10.7078    9.6413   16.9061 O.2     4  UNL4        0.0000
    158 O           9.9937    9.9408   14.5038 O.2     4  UNL4        0.0000
    159 F           5.6095   10.7030   15.2545 F       4  UNL4        0.0000
    160 F           5.9785   12.4111   13.9035 F       4  UNL4        0.0000
    161 F           7.0962   10.5393   13.6434 F       4  UNL4        0.0000
    162 F           9.4162    7.1939   15.4841 F       4  UNL4        0.0000
    163 F           8.4845    7.8650   17.3607 F       4  UNL4        0.0000
    164 F           7.4962    8.2442   15.4244 F       4  UNL4        0.0000
    165 S           7.8374   12.0681   15.7678 S.O2    4  UNL4        0.0000
    166 S           9.6519    9.8207   15.9141 S.O2    4  UNL4        0.0000
    167 TI         -7.8254   -5.1307   24.8845 Ti      1  UNL1        0.0000
    168 TI          3.2525   -2.0680   15.2738 Ti      1  UNL1        0.0000
    169 TI         -3.2806   -8.4455   22.9886 Ti      1  UNL1        0.0000
    170 TI         -1.3397    1.2458   17.1654 Ti      1  UNL1        0.0000
    171 TI         -3.0123    2.1342   15.1983 Ti      1  UNL1        0.0000
    172 TI         -1.8093   -9.6102   24.9578 Ti      1  UNL1        0.0000
    173 TI         -6.3782   -6.4311   22.9854 Ti      1  UNL1        0.0000
    174 TI          1.5367   -1.0243   17.1225 Ti      1  UNL1        0.0000
    175 H          -1.1777   -5.7627   20.5085 H       1  UNL1        0.0000
    176 H          -4.8632  -11.4326   20.7942 H       1  UNL1        0.0000
    177 H           0.2862    4.0316   19.3954 H       1  UNL1        0.0000
    178 H          -7.8130   -1.1105   24.7163 H       1  UNL1        0.0000
    179 H           3.0786   -6.1981   15.5834 H       1  UNL1        0.0000
    180 H         -11.5784   -6.7432   24.5356 H       1  UNL1        0.0000
    181 H           6.9251   -0.5902   15.4626 H       1  UNL1        0.0000
    182 H          -1.5780  -13.7664   24.6533 H       1  UNL1        0.0000
    183 H          -6.9159    0.7503   15.4645 H       1  UNL1        0.0000
    184 H          -0.0384   -3.8052   19.4229 H       1  UNL1        0.0000
    185 H          -4.7916   -3.4610   20.8089 H       1  UNL1        0.0000
    186 H          -8.5296   -9.1998   20.6052 H       1  UNL1        0.0000
    187 H          -2.1466    0.7106   13.2775 H       1  UNL1        0.0000
    188 H           2.2325   -0.6038   13.4483 H       1  UNL1        0.0000
    189 H          -4.4060   -6.7705   24.5544 H       1  UNL1        0.0000
    190 H          -0.4078   -0.5043   15.5695 H       1  UNL1        0.0000
    191 H          -1.1718   -9.7906   19.5101 H       1  UNL1        0.0000
    192 H          -3.5108    2.3976   20.6660 H       1  UNL1        0.0000
    193 H         -10.8541   -3.3209   22.4805 H       1  UNL1        0.0000
    194 H           6.0888   -4.0185   17.7546 H       1  UNL1        0.0000
    195 H          -8.3909   -4.9700   19.3672 H       1  UNL1        0.0000
    196 H          -5.9406    4.3228   17.6853 H       1  UNL1        0.0000
    197 H          -4.8368   -1.2643   19.8952 H       1  UNL1        0.0000
    198 H          -3.4234   -0.5001   19.1983 H       1  UNL1        0.0000
    199 H          -3.1771    5.3519   15.9860 H       1  UNL1        0.0000
    200 H           3.0425   -8.2522   16.7830 H      40  UNL40       0.0000
    201 H           2.6203   -7.7506   23.4096 H       1  UNL1        0.0000
    202 H           1.2691   -8.5584   24.1772 H       1  UNL1        0.0000
    203 H           5.1446    1.5835   19.7571 H       1  UNL1        0.0000
    204 H           3.7729    0.8519   18.9483 H       1  UNL1        0.0000
    205 H           3.2720   -2.0579   22.0023 H       1  UNL1        0.0000
    206 H           2.7764   -1.7914   20.3390 H       1  UNL1        0.0000
    207 H           2.1867  -12.3766   22.9562 H       1  UNL1        0.0000
    208 H           0.8509  -11.3842   23.5172 H       1  UNL1        0.0000
    209 C           3.9246   -2.5694   18.1192 C.3     1  UNL1        0.0000
    210 C          -8.6583   -4.7637   22.0655 C.2     1  UNL1        0.0000
    211 C          -0.9140  -10.0289   22.1194 C.2     1  UNL1        0.0000
    212 C          -3.7994    2.6772   18.0333 C.3     1  UNL1        0.0000
    213 C           4.7571   -3.1419   19.1875 C.ar    1  UNL1        0.0000
    214 C          -9.5494   -4.1879   21.0212 C.2     1  UNL1        0.0000
    215 C          -0.0635  -10.6850   21.1128 C.2     1  UNL1        0.0000
    216 C          -4.6452    3.3010   19.0897 C.ar    1  UNL1        0.0000
    217 C           4.4566   -2.9525   20.5761 C.ar    1  UNL1        0.0000
    218 C          -9.2636   -4.3901   19.6536 C.3     1  UNL1        0.0000
    219 C           1.0229  -11.5488   21.4736 C.3     1  UNL1        0.0000
    220 C          -5.7241    4.1400   18.7341 C.ar    1  UNL1        0.0000
    221 C          -4.3485    3.0494   20.4250 C.ar    1  UNL1        0.0000
    222 C          -0.3389  -10.4495   19.7457 C.3     1  UNL1        0.0000
    223 C           5.8953   -3.8953   18.8177 C.ar    1  UNL1        0.0000
    224 C         -10.6616   -3.4533   21.4176 C.3     1  UNL1        0.0000
    225 C          -1.7552   -2.5246   19.5101 C.ar    1  UNL1        0.0000
    226 C          -3.0563   -4.7096   20.7055 C.ar    1  UNL1        0.0000
    227 C           2.0358    2.7930   19.4156 C.ar    1  UNL1        0.0000
    228 C          -6.6322  -10.2273   20.7604 C.2     1  UNL1        0.0000
    229 C           3.1911   -6.1157   13.4489 C.2     1  UNL1        0.0000
    230 C          -3.0739    6.2469   13.4920 C.ar    1  UNL1        0.0000
    231 C           6.8779   -0.6863   13.3228 C.ar    1  UNL1        0.0000
    232 C          -6.7146    0.8166   13.3118 C.2     1  UNL1        0.0000
    233 C          -1.0327   -1.4454   18.8157 C.3     1  UNL1        0.0000
    234 C          -3.7532   -5.8572   21.3582 C.3     1  UNL1        0.0000
    235 C           1.3628    1.7542   18.6275 C.3     1  UNL1        0.0000
    236 C          -5.9866   -9.1361   21.5417 C.2     1  UNL1        0.0000
    237 C           3.2447   -4.6268   13.4521 C.2     1  UNL1        0.0000
    238 C          -3.0923    4.7791   13.4459 C.3     1  UNL1        0.0000
    239 C           5.5889   -1.3953   13.3476 C.3     1  UNL1        0.0000
    240 C          -5.4163    1.5521   13.3484 C.2     1  UNL1        0.0000
    241 C          -3.1250   -2.3969   19.9104 C.ar    1  UNL1        0.0000
    242 C          -1.6999   -4.8269   20.3327 C.ar    1  UNL1        0.0000
    243 C           1.3158    3.9663   19.7390 C.ar    1  UNL1        0.0000
    244 C          -5.8963  -11.3674   20.4573 C.3     1  UNL1        0.0000
    245 C           3.1008   -6.7825   14.6655 C.3     1  UNL1        0.0000
    246 C          -7.8383   -0.5248   25.6322 C.ar    1  UNL1        0.0000
    247 C           7.4561   -0.3086   14.5565 C.ar    1  UNL1        0.0000
    248 C         -12.1107   -7.0220   25.4433 C.3     1  UNL1        0.0000
    249 C           3.3981    2.6594   19.8392 C.ar    1  UNL1        0.0000
    250 C          -7.9777  -10.1007   20.3531 C.3     1  UNL1        0.0000
    251 C          -1.0765   -3.7436   19.7406 C.ar    1  UNL1        0.0000
    252 C          -3.7497   -3.5216   20.4994 C.ar    1  UNL1        0.0000
    253 C           2.6833   -7.8164   25.4611 C.ar    1  UNL1        0.0000
    254 C          -7.3601    0.4624   14.5163 C.3     1  UNL1        0.0000
    255 C          -1.6427  -14.3091   25.5920 C.3     1  UNL1        0.0000
    256 C          -3.1137    6.9721   14.7272 C.ar    1  UNL1        0.0000
    257 N          -3.8319   -1.2315   19.7787 N.pl3   1  UNL1        0.0000
    258 N          -3.2472    6.3665   15.9441 N.pl3   1  UNL1        0.0000
    259 N           2.2152   -8.1851   24.2291 N.pl3   1  UNL1        0.0000
    260 N           4.1453    1.5382   19.6027 N.pl3   1  UNL1        0.0000
    261 N           3.3547   -2.2800   21.0187 N.pl3   1  UNL1        0.0000
    262 N           1.3349  -11.8656   22.7635 N.3     1  UNL1        0.0000
    263 O           2.9050   -1.8471   18.4441 O.3     1  UNL1        0.0000
    264 O          -7.7125   -5.5411   21.6939 O.2     1  UNL1        0.0000
    265 O          -0.6407  -10.2123   23.3704 O.2     1  UNL1        0.0000
    266 O          -4.1303    2.8454   16.8114 O.3     1  UNL1        0.0000
    267 O          -2.7757    1.9969   18.4127 O.3     1  UNL1        0.0000
    268 O          -1.8889   -9.2877   21.7349 O.2     1  UNL1        0.0000
    269 O           4.2409   -2.7995   16.8928 O.3     1  UNL1        0.0000
    270 O          -8.8876   -4.4471   23.2884 O.2     1  UNL1        0.0000
    271 O           1.5696   -2.4767   16.0949 O.3     1  UNL1        0.0000
    272 O          -6.2380   -4.8869   23.9804 O.3     1  UNL1        0.0000
    273 O           2.9829   -0.4604   16.0280 O.3     1  UNL1        0.0000
    274 O          -7.7265   -6.8353   24.1646 O.3     1  UNL1        0.0000
    275 O          -3.2866  -10.0185   23.9874 O.3     1  UNL1        0.0000
    276 O          -1.4843    2.7130   16.1241 O.3     1  UNL1        0.0000
    277 O          -2.0501   -7.9072   24.2405 O.3     1  UNL1        0.0000
    278 O          -2.6411    0.5452   15.9662 O.3     1  UNL1        0.0000
    279 O           0.2109   -1.6335   18.5258 O.3     1  UNL1        0.0000
    280 O          -5.0127   -5.7774   21.5455 O.3     1  UNL1        0.0000
    281 O           1.9918    0.6946   18.3011 O.3     1  UNL1        0.0000
    282 O          -6.7146   -8.1634   21.9293 O.2     1  UNL1        0.0000
    283 O          -1.6289  -11.5037   25.6817 O.2     1  UNL1        0.0000
    284 O          -3.1867    4.1118   14.5341 O.3     1  UNL1        0.0000
    285 O           0.1664   -9.1805   25.5993 O.3     1  UNL1        0.0000
    286 O          -4.8795    1.7174   14.5027 O.2     1  UNL1        0.0000
    287 O           0.1335    1.9502   18.2739 O.3     1  UNL1        0.0000
    288 O          -4.7393   -9.2305   21.7929 O.2     1  UNL1        0.0000
    289 O          -1.6552   -0.3671   18.5132 O.3     1  UNL1        0.0000
    290 O          -3.0330   -6.8593   21.7005 O.3     1  UNL1        0.0000
    291 O           5.0690   -1.6811   14.4921 O.3     1  UNL1        0.0000
    292 O          -9.7680   -5.5196   25.6150 O.2     1  UNL1        0.0000
    293 O           3.2986   -4.0261   14.5700 O.2     1  UNL1        0.0000
    294 O          -7.8543   -3.2837   25.6624 O.3     1  UNL1        0.0000
    295 O           0.0441    0.0196   16.2555 O.3     1  UNL1        0.0000
    296 O          -4.7774   -7.3457   23.8614 O.3     1  UNL1        0.0000
    297 O           2.4605   -1.5507   13.4409 O.3     1  UNL1        0.0000
    298 O          -2.3159    1.6671   13.3561 O.3     1  UNL1        0.0000
    299 N          -2.8238   -4.9218   27.0349 N.pl3   6  UNL6        0.0000
    300 N          -1.8967   -4.9502   25.0534 N.pl3   6  UNL6        0.0000
    301 C          -3.8117   -4.5990   26.1183 C.2     6  UNL6        0.0000
    302 C          -3.2281   -4.6130   24.8758 C.2     6  UNL6        0.0000
    303 C          -0.4411   -3.7052   23.4665 C.3     6  UNL6        0.0000
    304 C          -2.9754   -4.9307   28.5004 C.3     6  UNL6        0.0000
    305 C          -1.6718   -5.1358   26.3662 C.3     6  UNL6        0.0000
    306 C          -0.8846   -5.0723   23.9800 C.3     6  UNL6        0.0000
    307 H          -4.8360   -4.4087   26.4180 H       6  UNL6        0.0000
    308 H          -3.6578   -4.4138   23.9017 H       6  UNL6        0.0000
    309 H          -1.2804   -3.1557   23.0204 H       6  UNL6        0.0000
    310 H          -2.5137   -4.0290   28.9179 H       6  UNL6        0.0000
    311 H          -0.0001   -3.0970   24.2660 H       6  UNL6        0.0000
    312 H          -4.0449   -4.9343   28.7341 H       6  UNL6        0.0000
    313 H           0.3076   -3.8446   22.6740 H       6  UNL6        0.0000
    314 H          -1.3379   -5.6825   23.1895 H       6  UNL6        0.0000
    315 H          -2.5058   -5.8331   28.9114 H       6  UNL6        0.0000
    316 H          -0.7289   -5.4266   26.8122 H       6  UNL6        0.0000
    317 H          -0.0548   -5.6532   24.4002 H       6  UNL6        0.0000
    318 N           3.6779    3.3479   29.8427 N.3     7  UNL7        0.0000
    319 C           1.7143    3.8982   27.9279 C.3     7  UNL7        0.0000
    320 C           3.8429    0.7205   29.4169 C.3     7  UNL7        0.0000
    321 O           3.8417    5.4331   28.2827 O.2     7  UNL7        0.0000
    322 O           2.1418    5.2414   30.1212 O.2     7  UNL7        0.0000
    323 O           5.8523    2.1615   30.2671 O.2     7  UNL7        0.0000
    324 O           5.1381    2.4610   27.8648 O.2     7  UNL7        0.0000
    325 F           0.7540    3.2232   28.6155 F       7  UNL7        0.0000
    326 F           1.1230    4.9313   27.2645 F       7  UNL7        0.0000
    327 F           2.2407    3.0596   27.0044 F       7  UNL7        0.0000
    328 F           4.5607   -0.2858   28.8451 F       7  UNL7        0.0000
    329 F           3.6290    0.3853   30.7217 F       7  UNL7        0.0000
    330 F           2.6407    0.7645   28.7854 F       7  UNL7        0.0000
    331 S           2.9818    4.5884   29.1288 S.O2    7  UNL7        0.0000
    332 S           4.7964    2.3409   29.2751 S.O2    7  UNL7        0.0000
    333 TI        -12.6810  -12.6105   38.2455 Ti      1  UNL1        0.0000
    334 TI         -1.6030   -9.5477   28.6348 Ti      1  UNL1        0.0000
    335 TI         -8.1361  -15.9253   36.3496 Ti      1  UNL1        0.0000
    336 TI         -6.1952   -6.2340   30.5264 Ti      1  UNL1        0.0000
    337 TI         -7.8678   -5.3455   28.5593 Ti      1  UNL1        0.0000
    338 TI         -6.6648  -17.0900   38.3188 Ti      1  UNL1        0.0000
    339 TI        -11.2338  -13.9108   36.3464 Ti      1  UNL1        0.0000
    340 TI         -3.3188   -8.5040   30.4835 Ti      1  UNL1        0.0000
    341 H          -6.0332  -13.2425   33.8695 H       1  UNL1        0.0000
    342 H          -9.7188  -18.9123   34.1552 H       1  UNL1        0.0000
    343 H          -4.5693   -3.4481   32.7564 H       1  UNL1        0.0000
    344 H         -12.6685   -8.5902   38.0773 H       1  UNL1        0.0000
    345 H          -1.7769  -13.6778   28.9444 H       1  UNL1        0.0000
    346 H         -16.4339  -14.2229   37.8966 H       2  UNL2        0.0000
    347 H           2.0695   -8.0699   28.8236 H       1  UNL1        0.0000
    348 H          -6.4335  -21.2462   38.0143 H       4  UNL4        0.0000
    349 H         -11.7714   -6.7294   28.8255 H       1  UNL1        0.0000
    350 H          -4.8939  -11.2849   32.7839 H       1  UNL1        0.0000
    351 H          -9.6471  -10.9408   34.1699 H       1  UNL1        0.0000
    352 H         -13.3851  -16.6796   33.9662 H       1  UNL1        0.0000
    353 H          -7.0021   -6.7692   26.6385 H       1  UNL1        0.0000
    354 H          -2.6230   -8.0835   26.8093 H       1  UNL1        0.0000
    355 H          -9.2615  -14.2503   37.9154 H       1  UNL1        0.0000
    356 H          -5.2633   -7.9841   28.9305 H       1  UNL1        0.0000
    357 H          -6.0273  -17.2703   32.8711 H       1  UNL1        0.0000
    358 H          -8.3664   -5.0821   34.0270 H       1  UNL1        0.0000
    359 H         -15.7096  -10.8006   35.8415 H       1  UNL1        0.0000
    360 H           1.2333  -11.4983   31.1156 H       1  UNL1        0.0000
    361 H         -13.2464  -12.4498   32.7282 H       1  UNL1        0.0000
    362 H         -10.7961   -3.1570   31.0463 H       1  UNL1        0.0000
    363 H          -9.6923   -8.7440   33.2562 H       1  UNL1        0.0000
    364 H          -8.2790   -7.9799   32.5593 H       1  UNL1        0.0000
    365 H          -8.0326   -2.1279   29.3470 H       1  UNL1        0.0000
    366 H          -1.8130  -15.7319   30.1440 H      40  UNL40       0.0000
    367 H          -2.2352  -15.2303   36.7706 H       3  UNL3        0.0000
    368 H          -3.5864  -16.0382   37.5382 H       3  UNL3        0.0000
    369 H           0.2891   -5.8962   33.1181 H       1  UNL1        0.0000
    370 H          -1.0826   -6.6278   32.3093 H       1  UNL1        0.0000
    371 H          -1.5835   -9.5377   35.3633 H       1  UNL1        0.0000
    372 H          -2.0791   -9.2711   33.7000 H       1  UNL1        0.0000
    373 H          -2.6689  -19.8563   36.3172 H       1  UNL1        0.0000
    374 H          -4.0047  -18.8639   36.8782 H       1  UNL1        0.0000
    375 C          -0.9310  -10.0492   31.4802 C.3     1  UNL1        0.0000
    376 C         -13.5138  -12.2435   35.4265 C.2     1  UNL1        0.0000
    377 C          -5.7695  -17.5087   35.4804 C.2     1  UNL1        0.0000
    378 C          -8.6549   -4.8025   31.3943 C.3     1  UNL1        0.0000
    379 C          -0.0984  -10.6216   32.5485 C.ar    1  UNL1        0.0000
    380 C         -14.4049  -11.6677   34.3822 C.2     1  UNL1        0.0000
    381 C          -4.9190  -18.1647   34.4738 C.2     1  UNL1        0.0000
    382 C          -9.5008   -4.1788   32.4507 C.ar    1  UNL1        0.0000
    383 C          -0.3989  -10.4322   33.9371 C.ar    1  UNL1        0.0000
    384 C         -14.1192  -11.8699   33.0146 C.3     1  UNL1        0.0000
    385 C          -3.8326  -19.0286   34.8346 C.3     1  UNL1        0.0000
    386 C         -10.5797   -3.3397   32.0951 C.ar    1  UNL1        0.0000
    387 C          -9.2040   -4.4303   33.7860 C.ar    1  UNL1        0.0000
    388 C          -5.1944  -17.9293   33.1067 C.3     1  UNL1        0.0000
    389 C           1.0398  -11.3750   32.1787 C.ar    1  UNL1        0.0000
    390 C         -15.5172  -10.9331   34.7786 C.3     1  UNL1        0.0000
    391 C          -6.6107  -10.0044   32.8711 C.ar    1  UNL1        0.0000
    392 C          -7.9118  -12.1893   34.0665 C.ar    1  UNL1        0.0000
    393 C          -2.8197   -4.6867   32.7766 C.ar    1  UNL1        0.0000
    394 C         -11.4878  -17.7070   34.1214 C.2     1  UNL1        0.0000
    395 C          -1.6644  -13.5955   26.8099 C.2     1  UNL1        0.0000
    396 C          -7.9294   -1.2329   26.8530 C.ar    1  UNL1        0.0000
    397 C           2.0224   -8.1660   26.6838 C.ar    1  UNL1        0.0000
    398 C         -11.5701   -6.6631   26.6728 C.2     1  UNL1        0.0000
    399 C          -5.8882   -8.9251   32.1767 C.3     1  UNL1        0.0000
    400 C          -8.6087  -13.3370   34.7192 C.3     1  UNL1        0.0000
    401 C          -3.4928   -5.7256   31.9885 C.3     1  UNL1        0.0000
    402 C         -10.8421  -16.6158   34.9027 C.2     1  UNL1        0.0000
    403 C          -1.6108  -12.1065   26.8131 C.2     1  UNL1        0.0000
    404 C          -7.9478   -2.7007   26.8069 C.3     1  UNL1        0.0000
    405 C           0.7334   -8.8751   26.7086 C.3     1  UNL1        0.0000
    406 C         -10.2719   -5.9276   26.7094 C.2     1  UNL1        0.0000
    407 C          -7.9805   -9.8766   33.2714 C.ar    1  UNL1        0.0000
    408 C          -6.5554  -12.3067   33.6937 C.ar    1  UNL1        0.0000
    409 C          -3.5398   -3.5135   33.1000 C.ar    1  UNL1        0.0000
    410 C         -10.7518  -18.8472   33.8183 C.3     1  UNL1        0.0000
    411 C          -1.7547  -14.2622   28.0265 C.3     1  UNL1        0.0000
    412 C         -12.6938   -8.0045   38.9932 C.2     1  UNL1        0.0000
    413 C           2.6006   -7.7883   27.9175 C.ar    1  UNL1        0.0000
    414 C         -16.9662  -14.5018   38.8043 C.3     9  UNL9        0.0000
    415 C          -1.4575   -4.8203   33.2002 C.ar    1  UNL1        0.0000
    416 C         -12.8332  -17.5805   33.7141 C.3     1  UNL1        0.0000
    417 C          -5.9321  -11.2233   33.1016 C.ar    1  UNL1        0.0000
    418 C          -8.6052  -11.0013   33.8604 C.ar    1  UNL1        0.0000
    419 C          -2.1722  -15.2962   38.8221 C.2     3  UNL3        0.0000
    420 C         -12.2156   -7.0173   27.8773 C.3     1  UNL1        0.0000
    421 C          -6.4982  -21.7889   38.9530 C.3    10  UNL10       0.0000
    422 C          -7.9692   -0.5076   28.0882 C.ar    1  UNL1        0.0000
    423 N          -8.6874   -8.7112   33.1397 N.pl3   1  UNL1        0.0000
    424 N          -8.1027   -1.1133   29.3051 N.pl3   1  UNL1        0.0000
    425 N          -2.6403  -15.6649   37.5901 N.pl3   3  UNL3        0.0000
    426 N          -0.7103   -5.9415   32.9637 N.pl3   1  UNL1        0.0000
    427 N          -1.5009   -9.7597   34.3797 N.pl3   1  UNL1        0.0000
    428 N          -3.5206  -19.3453   36.1245 N.3     1  UNL1        0.0000
    429 O          -1.9505   -9.3269   31.8051 O.3     1  UNL1        0.0000
    430 O         -12.5680  -13.0208   35.0549 O.2     1  UNL1        0.0000
    431 O          -5.4962  -17.6920   36.7314 O.2     1  UNL1        0.0000
    432 O          -8.9859   -4.6344   30.1724 O.3     1  UNL1        0.0000
    433 O          -7.6312   -5.4828   31.7737 O.3     1  UNL1        0.0000
    434 O          -6.7444  -16.7674   35.0959 O.2     1  UNL1        0.0000
    435 O          -0.6146  -10.2792   30.2538 O.3     1  UNL1        0.0000
    436 O         -13.7432  -11.9269   36.6494 O.2     1  UNL1        0.0000
    437 O          -3.2859   -9.9564   29.4559 O.3     1  UNL1        0.0000
    438 O         -11.0935  -12.3667   37.3414 O.3     1  UNL1        0.0000
    439 O          -1.8727   -7.9401   29.3890 O.3     1  UNL1        0.0000
    440 O         -12.5820  -14.3150   37.5256 O.3     1  UNL1        0.0000
    441 O          -8.1422  -17.4982   37.3484 O.3     1  UNL1        0.0000
    442 O          -6.3398   -4.7668   29.4851 O.3     1  UNL1        0.0000
    443 O          -6.9056  -15.3870   37.6015 O.3     1  UNL1        0.0000
    444 O          -7.4966   -6.9345   29.3272 O.3     1  UNL1        0.0000
    445 O          -4.6446   -9.1132   31.8868 O.3     1  UNL1        0.0000
    446 O          -9.8683  -13.2571   34.9065 O.3     1  UNL1        0.0000
    447 O          -2.8638   -6.7851   31.6621 O.3     1  UNL1        0.0000
    448 O         -11.5701  -15.6432   35.2903 O.2     1  UNL1        0.0000
    449 O          -6.4845  -18.9835   39.0427 O.3     1  UNL1        0.0000
    450 O          -8.0422   -3.3679   27.8951 O.3     1  UNL1        0.0000
    451 O          -4.6891  -16.6603   38.9603 O.3     1  UNL1        0.0000
    452 O          -9.7351   -5.7624   27.8637 O.2     1  UNL1        0.0000
    453 O          -4.7221   -5.5295   31.6349 O.3     1  UNL1        0.0000
    454 O          -9.5948  -16.7103   35.1539 O.2     1  UNL1        0.0000
    455 O          -6.5107   -7.8468   31.8742 O.3     1  UNL1        0.0000
    456 O          -7.8885  -14.3391   35.0615 O.3     1  UNL1        0.0000
    457 O           0.2135   -9.1609   27.8531 O.3     1  UNL1        0.0000
    458 O         -14.6235  -12.9993   38.9760 O.3     1  UNL1        0.0000
    459 O          -1.5569  -11.5059   27.9310 O.2     1  UNL1        0.0000
    460 O         -12.7098  -10.7634   39.0234 O.3     1  UNL1        0.0000
    461 O          -4.8114   -7.4601   29.6165 O.3     1  UNL1        0.0000
    462 O          -9.6329  -14.8254   37.2224 O.3     1  UNL1        0.0000
    463 O          -2.3950   -9.0305   26.8019 O.3     1  UNL1        0.0000
    464 O          -7.1714   -5.8127   26.7171 O.3     1  UNL1        0.0000
    465 N          -7.6793  -12.4016   40.3959 N.pl3  11  UNL11       0.0000
    466 N          -6.7522  -12.4300   38.4144 N.pl3  11  UNL11       0.0000
    467 C          -8.6672  -12.0787   39.4793 C.2    11  UNL11       0.0000
    468 C          -8.0836  -12.0927   38.2368 C.2    11  UNL11       0.0000
    469 C          -5.2966  -11.1849   36.8275 C.3    11  UNL11       0.0000
    470 C          -7.8310  -12.4104   41.8614 C.3    11  UNL11       0.0000
    471 C          -6.5274  -12.6155   39.7272 C.3    11  UNL11       0.0000
    472 C          -5.7401  -12.5520   37.3410 C.3    11  UNL11       0.0000
    473 H          -9.6915  -11.8884   39.7790 H      11  UNL11       0.0000
    474 H          -8.5133  -11.8936   37.2627 H      11  UNL11       0.0000
    475 H          -6.1359  -10.6354   36.3814 H      11  UNL11       0.0000
    476 H          -7.3692  -11.5087   42.2789 H      11  UNL11       0.0000
    477 H          -4.8556  -10.5768   37.6270 H      11  UNL11       0.0000
    478 H          -8.9005  -12.4141   42.0951 H      11  UNL11       0.0000
    479 H          -4.5479  -11.3244   36.0350 H      11  UNL11       0.0000
    480 H          -6.1934  -13.1622   36.5505 H      11  UNL11       0.0000
    481 H          -7.3613  -13.3128   42.2724 H      11  UNL11       0.0000
    482 H          -5.5844  -12.9063   40.1731 H      11  UNL11       0.0000
    483 H          -4.9103  -13.1329   37.7612 H      11  UNL11       0.0000
    484 N          -1.1777   -4.1318   43.2037 N.3    12  UNL12       0.0000
    485 C          -3.1413   -3.5816   41.2889 C.3    12  UNL12       0.0000
    486 C          -1.0126   -6.7592   42.7779 C.3    12  UNL12       0.0000
    487 O          -1.0138   -2.0466   41.6437 O.2    12  UNL12       0.0000
    488 O          -2.7137   -2.2383   43.4822 O.2    12  UNL12       0.0000
    489 O           0.9967   -5.3182   43.6281 O.2    12  UNL12       0.0000
    490 O           0.2826   -5.0187   41.2258 O.2    12  UNL12       0.0000
    491 F          -4.1016   -4.2565   41.9765 F      12  UNL12       0.0000
    492 F          -3.7325   -2.5484   40.6255 F      12  UNL12       0.0000
    493 F          -2.6148   -4.4201   40.3654 F      12  UNL12       0.0000
    494 F          -0.2949   -7.7656   42.2061 F      12  UNL12       0.0000
    495 F          -1.2266   -7.0945   44.0827 F      12  UNL12       0.0000
    496 F          -2.2148   -6.7153   42.1464 F      12  UNL12       0.0000
    497 S          -1.8737   -2.8914   42.4898 S.O2   12  UNL12       0.0000
    498 S          -0.0591   -5.1388   42.6361 S.O2   12  UNL12       0.0000
    499 TI         -9.1068   17.5145   11.5221 Ti      1  UNL1        0.0000
    500 TI          1.9712   20.5772    1.9114 Ti      1  UNL1        0.0000
    501 TI         -4.5619   14.1997    9.6262 Ti      1  UNL1        0.0000
    502 TI         -2.6210   23.8910    3.8030 Ti      1  UNL1        0.0000
    503 TI         -4.2936   24.7794    1.8359 Ti      1  UNL1        0.0000
    504 TI         -3.0907   13.0350   11.5954 Ti      1  UNL1        0.0000
    505 TI         -7.6596   16.2141    9.6230 Ti      1  UNL1        0.0000
    506 TI          0.2554   21.6210    3.7601 Ti      1  UNL1        0.0000
    507 H          -2.4590   16.8825    7.1461 H       1  UNL1        0.0000
    508 H          -6.1446   11.2126    7.4318 H       1  UNL1        0.0000
    509 H          -0.9951   26.6768    6.0330 H       1  UNL1        0.0000
    510 H          -9.0943   21.5347   11.3539 H       1  UNL1        0.0000
    511 H           1.7973   16.4472    2.2210 H       1  UNL1        0.0000
    512 H         -12.8597   15.9020   11.1731 H       1  UNL1        0.0000
    513 H           5.6437   22.0550    2.1001 H       1  UNL1        0.0000
    514 H          -2.8593    8.8788   11.2909 H       1  UNL1        0.0000
    515 H          -8.1972   23.3955    2.1021 H       1  UNL1        0.0000
    516 H          -1.3197   18.8400    6.0605 H       1  UNL1        0.0000
    517 H          -6.0729   19.1842    7.4465 H       1  UNL1        0.0000
    518 H          -9.8109   13.4454    7.2428 H       1  UNL1        0.0000
    519 H          -3.4280   23.3558   -0.0849 H       1  UNL1        0.0000
    520 H           0.9511   22.0414    0.0859 H       1  UNL1        0.0000
    521 H          -5.6873   15.8747   11.1920 H       1  UNL1        0.0000
    522 H          -1.6891   22.1409    2.2071 H       1  UNL1        0.0000
    523 H          -2.4531   12.8546    6.1477 H       1  UNL1        0.0000
    524 H          -4.7922   25.0428    7.3036 H       1  UNL1        0.0000
    525 H         -12.1354   19.3243    9.1181 H       1  UNL1        0.0000
    526 H           4.8075   18.6267    4.3922 H       1  UNL1        0.0000
    527 H          -9.6722   17.6752    6.0048 H       1  UNL1        0.0000
    528 H          -7.2220   26.9680    4.3229 H       1  UNL1        0.0000
    529 H          -6.1181   21.3809    6.5328 H       1  UNL1        0.0000
    530 H          -4.7048   22.1451    5.8359 H       1  UNL1        0.0000
    531 H          -4.4584   27.9971    2.6235 H       1  UNL1        0.0000
    532 H           1.7612   14.3930    3.4206 H       1  UNL1        0.0000
    533 H           1.3390   14.8946   10.0472 H       1  UNL1        0.0000
    534 H          -0.0123   14.0868   10.8148 H       1  UNL1        0.0000
    535 H           3.8632   24.2287    6.3947 H       1  UNL1        0.0000
    536 H           2.4916   23.4971    5.5859 H       1  UNL1        0.0000
    537 H           1.9907   20.5873    8.6399 H       1  UNL1        0.0000
    538 H           1.4951   20.8538    6.9766 H       1  UNL1        0.0000
    539 H           0.9053   10.2686    9.5938 H       1  UNL1        0.0000
    540 H          -0.4305   11.2610   10.1548 H       1  UNL1        0.0000
    541 C           2.6432   20.0758    4.7567 C.3     1  UNL1        0.0000
    542 C          -9.9397   17.8815    8.7031 C.2     1  UNL1        0.0000
    543 C          -2.1953   12.6163    8.7570 C.3     1  UNL1        0.0000
    544 C          -5.0807   25.3224    4.6709 C.3     1  UNL1        0.0000
    545 C           3.4758   19.5033    5.8251 C.ar    1  UNL1        0.0000
    546 C         -10.8307   18.4573    7.6588 C.2     1  UNL1        0.0000
    547 C          -1.3448   11.9602    7.7503 C.ar    1  UNL1        0.0000
    548 C          -5.9266   25.9462    5.7273 C.ar    1  UNL1        0.0000
    549 C           3.1753   19.6927    7.2137 C.ar    1  UNL1        0.0000
    550 C         -10.5450   18.2551    6.2912 C.3     1  UNL1        0.0000
    551 C          -0.2584   11.0964    8.1111 C.ar    1  UNL1        0.0000
    552 C          -7.0055   26.7852    5.3717 C.ar    1  UNL1        0.0000
    553 C          -5.6298   25.6946    7.0626 C.ar    1  UNL1        0.0000
    554 C          -1.6202   12.1957    6.3833 C.ar    1  UNL1        0.0000
    555 C           4.6140   18.7499    5.4553 C.ar    1  UNL1        0.0000
    556 C         -11.9430   19.1919    8.0552 C.3     1  UNL1        0.0000
    557 C          -3.0365   20.1206    6.1476 C.ar    1  UNL1        0.0000
    558 C          -4.3376   17.9356    7.3431 C.ar    1  UNL1        0.0000
    559 C           0.7545   25.4382    6.0532 C.ar    1  UNL1        0.0000
    560 C          -7.9136   12.4179    7.3980 C.2     1  UNL1        0.0000
    561 C           1.9098   16.5295    0.0865 C.2     1  UNL1        0.0000
    562 C          -4.3552   28.8921    0.1296 C.2     1  UNL1        0.0000
    563 C           5.5966   21.9589   -0.0396 C.2     1  UNL1        0.0000
    564 C          -7.9959   23.4618   -0.0506 C.2     1  UNL1        0.0000
    565 C          -2.3140   21.1998    5.4533 C.3     1  UNL1        0.0000
    566 C          -5.0345   16.7880    7.9958 C.3     1  UNL1        0.0000
    567 C           0.0814   24.3994    5.2651 C.3     1  UNL1        0.0000
    568 C          -7.2680   13.5091    8.1793 C.2     1  UNL1        0.0000
    569 C           1.9634   18.0184    0.0897 C.2     1  UNL1        0.0000
    570 C          -4.3736   27.4243    0.0835 C.2     1  UNL1        0.0000
    571 C           4.3076   21.2499   -0.0148 C.2     1  UNL1        0.0000
    572 C          -6.6977   24.1973   -0.0140 C.2     1  UNL1        0.0000
    573 C          -4.4063   20.2483    6.5480 C.ar    1  UNL1        0.0000
    574 C          -2.9812   17.8183    6.9703 C.ar    1  UNL1        0.0000
    575 C           0.0344   26.6115    6.3766 C.ar    1  UNL1        0.0000
    576 C          -7.1777   11.2778    7.0949 C.3     1  UNL1        0.0000
    577 C           1.8195   15.8627    1.3031 C.2     1  UNL1        0.0000
    578 C          -9.1196   22.1204   12.2698 C.ar    1  UNL1        0.0000
    579 C           6.1748   22.3366    1.1941 C.2     1  UNL1        0.0000
    580 C         -13.3920   15.6232   12.0809 C.3     1  UNL1        0.0000
    581 C           2.1167   25.3046    6.4768 C.ar    1  UNL1        0.0000
    582 C          -9.2590   12.5445    6.9907 C.3     1  UNL1        0.0000
    583 C          -2.3579   18.9016    6.3781 C.ar    1  UNL1        0.0000
    584 C          -5.0310   19.1236    7.1370 C.ar    1  UNL1        0.0000
    585 C           1.4020   14.8288   12.0987 C.ar    1  UNL1        0.0000
    586 C          -8.6414   23.1076    1.1539 C.3     1  UNL1        0.0000
    587 C          -2.9240    8.3361   12.2296 C.ar    1  UNL1        0.0000
    588 C          -4.3950   29.6173    1.3648 C.2     1  UNL1        0.0000
    589 N          -5.1132   21.4137    6.4163 N.pl3   1  UNL1        0.0000
    590 N          -4.5285   29.0117    2.5817 N.pl3   1  UNL1        0.0000
    591 N           0.9339   14.4601   10.8666 N.pl3   1  UNL1        0.0000
    592 N           2.8639   24.1834    6.2403 N.pl3   1  UNL1        0.0000
    593 N           2.0733   20.3652    7.6563 N.pl3   1  UNL1        0.0000
    594 N           0.0536   10.7796    9.4011 N.pl3   1  UNL1        0.0000
    595 O           1.6236   20.7981    5.0817 O.3     1  UNL1        0.0000
    596 O          -8.9938   17.1041    8.3315 O.2     1  UNL1        0.0000
    597 O          -1.9220   12.4329   10.0080 O.3     1  UNL1        0.0000
    598 O          -5.4117   25.4906    3.4490 O.3     1  UNL1        0.0000
    599 O          -4.0570   24.6421    5.0502 O.3     1  UNL1        0.0000
    600 O          -3.1702   13.3575    8.3725 O.3     1  UNL1        0.0000
    601 O           2.9596   19.8457    3.5304 O.3     1  UNL1        0.0000
    602 O         -10.1690   18.1981    9.9260 O.2     1  UNL1        0.0000
    603 O           0.2883   20.1685    2.7325 O.3     1  UNL1        0.0000
    604 O          -7.5193   17.7583   10.6180 O.3     1  UNL1        0.0000
    605 O           1.7015   22.1848    2.6656 O.3     1  UNL1        0.0000
    606 O          -9.0078   15.8099   10.8022 O.3     1  UNL1        0.0000
    607 O          -4.5680   12.6267   10.6249 O.3     1  UNL1        0.0000
    608 O          -2.7656   25.3582    2.7616 O.3     1  UNL1        0.0000
    609 O          -3.3314   14.7380   10.8781 O.3     1  UNL1        0.0000
    610 O          -3.9224   23.1904    2.6038 O.3     1  UNL1        0.0000
    611 O          -1.0704   21.0117    5.1633 O.3     1  UNL1        0.0000
    612 O          -6.2941   16.8678    8.1831 O.3     1  UNL1        0.0000
    613 O           0.7104   23.3398    4.9387 O.3     1  UNL1        0.0000
    614 O          -7.9959   14.4818    8.5669 O.2     1  UNL1        0.0000
    615 O          -2.9103   11.1415   12.3192 O.3     1  UNL1        0.0000
    616 O          -4.4681   26.7570    1.1716 O.2     1  UNL1        0.0000
    617 O          -1.1149   13.4647   12.2369 O.3     1  UNL1        0.0000
    618 O          -6.1609   24.3626    1.1403 O.2     1  UNL1        0.0000
    619 O          -1.1479   24.5954    4.9115 O.3     1  UNL1        0.0000
    620 O          -6.0206   13.4147    8.4305 O.2     1  UNL1        0.0000
    621 O          -2.9365   22.2781    5.1508 O.3     1  UNL1        0.0000
    622 O          -4.3143   15.7859    8.3381 O.3     1  UNL1        0.0000
    623 O           3.7876   20.9641    1.1297 O.2     1  UNL1        0.0000
    624 O         -11.0493   17.1256   12.2526 O.2     1  UNL1        0.0000
    625 O           2.0173   18.6191    1.2076 O.2     1  UNL1        0.0000
    626 O          -9.1356   19.3615   12.3000 O.3     1  UNL1        0.0000
    627 O          -1.2372   22.6648    2.8931 O.3     1  UNL1        0.0000
    628 O          -6.0587   15.2995   10.4990 O.3     1  UNL1        0.0000
    629 O           1.1792   21.0945    0.0785 O.3     1  UNL1        0.0000
    630 O          -3.5972   24.3123   -0.0063 O.3     1  UNL1        0.0000
    631 N          -4.1052   17.7234   13.6725 N.pl3  13  UNL13       0.0000
    632 N          -3.1780   17.6950   11.6910 N.pl3  13  UNL13       0.0000
    633 C          -5.0931   18.0462   12.7558 C.2    13  UNL13       0.0000
    634 C          -4.5094   18.0322   11.5134 C.2    13  UNL13       0.0000
    635 C          -1.7224   18.9400   10.1041 C.3    13  UNL13       0.0000
    636 C          -4.2568   17.7145   15.1379 C.3    13  UNL13       0.0000
    637 C          -2.9532   17.5094   13.0038 C.3    13  UNL13       0.0000
    638 C          -2.1659   17.5729   10.6176 C.3    13  UNL13       0.0000
    639 H          -6.1174   18.2365   13.0556 H      13  UNL13       0.0000
    640 H          -4.9391   18.2314   10.5393 H      13  UNL13       0.0000
    641 H          -2.5617   19.4895    9.6580 H      13  UNL13       0.0000
    642 H          -3.7951   18.6162   15.5555 H      13  UNL13       0.0000
    643 H          -1.2815   19.5482   10.9036 H      13  UNL13       0.0000
    644 H          -5.3263   17.7109   15.3717 H      13  UNL13       0.0000
    645 H          -0.9737   18.8006    9.3116 H      13  UNL13       0.0000
    646 H          -2.6192   16.9627    9.8271 H      13  UNL13       0.0000
    647 H          -3.7871   16.8121   15.5490 H      13  UNL13       0.0000
    648 H          -2.0102   17.2186   13.4497 H      13  UNL13       0.0000
    649 H          -1.3361   16.9920   11.0378 H      13  UNL13       0.0000
    650 N           2.3965   25.9931   16.4803 N.3    14  UNL14       0.0000
    651 C           0.4329   26.5434   14.5655 C.3    14  UNL14       0.0000
    652 C           2.5616   23.3657   16.0545 C.3    14  UNL14       0.0000
    653 O           2.5604   28.0783   14.9203 O.2    14  UNL14       0.0000
    654 O           0.8605   27.8866   16.7588 O.2    14  UNL14       0.0000
    655 O           4.5709   24.8067   16.9047 O.2    14  UNL14       0.0000
    656 O           3.8568   25.1062   14.5024 O.2    14  UNL14       0.0000
    657 F          -0.5274   25.8684   15.2531 F      14  UNL14       0.0000
    658 F          -0.1583   27.5765   13.9020 F      14  UNL14       0.0000
    659 F           0.9594   25.7048   13.6420 F      14  UNL14       0.0000
    660 F           3.2793   22.3594   15.4827 F      14  UNL14       0.0000
    661 F           2.3476   23.0305   17.3593 F      14  UNL14       0.0000
    662 F           1.3594   23.4097   15.4229 F      14  UNL14       0.0000
    663 S           1.7005   27.2336   15.7664 S.O2   14  UNL14       0.0000
    664 S           3.5151   24.9862   15.9127 S.O2   14  UNL14       0.0000
    665 TI        -13.9623   10.0347   24.8831 Ti      1  UNL1        0.0000
    666 TI         -2.8843   13.0975   15.2724 Ti      1  UNL1        0.0000
    667 TI         -9.4174    6.7199   22.9872 Ti      1  UNL1        0.0000
    668 TI         -7.4765   16.4112   17.1640 Ti      1  UNL1        0.0000
    669 TI         -9.1492   17.2997   15.1969 Ti      1  UNL1        0.0000
    670 TI         -7.9462    5.5552   24.9564 Ti      1  UNL1        0.0000
    671 TI        -12.5151    8.7344   22.9840 Ti      1  UNL1        0.0000
    672 TI         -4.6002   14.1412   17.1211 Ti      1  UNL1        0.0000
    673 H          -7.3145    9.4027   20.5071 H       1  UNL1        0.0000
    674 H         -11.0001    3.7329   20.7928 H       1  UNL1        0.0000
    675 H          -5.8506   19.1971   19.3940 H       1  UNL1        0.0000
    676 H         -13.9498   14.0550   24.7149 H       1  UNL1        0.0000
    677 H          -3.0582    8.9674   15.5820 H       1  UNL1        0.0000
    678 H         -17.7152    8.4223   24.5341 H       1  UNL1        0.0000
    679 H           0.7882   14.5753   15.4611 H       1  UNL1        0.0000
    680 H          -7.7149    1.3990   24.6519 H       1  UNL1        0.0000
    681 H         -13.0527   15.9158   15.4631 H       1  UNL1        0.0000
    682 H          -6.1752   11.3603   19.4215 H       1  UNL1        0.0000
    683 H         -10.9284   11.7044   20.8075 H       1  UNL1        0.0000
    684 H         -14.6664    5.9656   20.6038 H       1  UNL1        0.0000
    685 H          -8.2835   15.8760   13.2761 H       1  UNL1        0.0000
    686 H          -3.9044   14.5617   13.4469 H       1  UNL1        0.0000
    687 H         -10.5428    8.3949   24.5530 H       1  UNL1        0.0000
    688 H          -6.5447   14.6611   15.5681 H       1  UNL1        0.0000
    689 H          -7.3086    5.3749   19.5087 H       1  UNL1        0.0000
    690 H          -9.6477   17.5631   20.6646 H       1  UNL1        0.0000
    691 H         -16.9910   11.8446   22.4791 H       1  UNL1        0.0000
    692 H          -0.0480   11.1469   17.7532 H       1  UNL1        0.0000
    693 H         -14.5278   10.1954   19.3658 H       1  UNL1        0.0000
    694 H         -12.0775   19.4882   17.6839 H       1  UNL1        0.0000
    695 H         -10.9737   13.9012   19.8937 H       1  UNL1        0.0000
    696 H          -9.5603   14.6653   19.1969 H       1  UNL1        0.0000
    697 H          -9.3139   20.5173   15.9845 H       1  UNL1        0.0000
    698 H          -3.0943    6.9133   16.7816 H       1  UNL1        0.0000
    699 H          -3.5166    7.4149   23.4082 H       1  UNL1        0.0000
    700 H          -4.8678    6.6071   24.1758 H       1  UNL1        0.0000
    701 H          -0.9923   16.7490   19.7557 H       1  UNL1        0.0000
    702 H          -2.3639   16.0174   18.9469 H       1  UNL1        0.0000
    703 H          -2.8648   13.1075   22.0009 H       1  UNL1        0.0000
    704 H          -3.3605   13.3741   20.3376 H       1  UNL1        0.0000
    705 H          -3.9502    2.7889   22.9548 H       1  UNL1        0.0000
    706 H          -5.2860    3.7813   23.5158 H       1  UNL1        0.0000
    707 C          -2.2123   12.5960   18.1177 C.3     1  UNL1        0.0000
    708 C         -14.7952   10.4017   22.0641 C.2     1  UNL1        0.0000
    709 C          -7.0508    5.1365   22.1180 C.3     1  UNL1        0.0000
    710 C          -9.9362   17.8427   18.0319 C.3     1  UNL1        0.0000
    711 C          -1.3797   12.0236   19.1861 C.ar    1  UNL1        0.0000
    712 C         -15.6862   10.9775   21.0198 C.2     1  UNL1        0.0000
    713 C          -6.2004    4.4805   21.1113 C.ar    1  UNL1        0.0000
    714 C         -10.7821   18.4664   19.0883 C.ar    1  UNL1        0.0000
    715 C          -1.6802   12.2130   20.5747 C.ar    1  UNL1        0.0000
    716 C         -15.4005   10.7753   19.6522 C.3     1  UNL1        0.0000
    717 C          -5.1140    3.6166   21.4721 C.ar    1  UNL1        0.0000
    718 C         -11.8610   19.3055   18.7327 C.ar    1  UNL1        0.0000
    719 C         -10.4854   18.2149   20.4236 C.ar    1  UNL1        0.0000
    720 C          -6.4757    4.7159   19.7443 C.ar    1  UNL1        0.0000
    721 C          -0.2415   11.2702   18.8163 C.ar    1  UNL1        0.0000
    722 C         -16.7985   11.7121   21.4162 C.3     1  UNL1        0.0000
    723 C          -7.8920   12.6408   19.5086 C.ar    1  UNL1        0.0000
    724 C          -9.1931   10.4559   20.7041 C.ar    1  UNL1        0.0000
    725 C          -4.1011   17.9585   19.4142 C.ar    1  UNL1        0.0000
    726 C         -12.7691    4.9382   20.7590 C.2     1  UNL1        0.0000
    727 C          -2.9457    9.0497   13.4475 C.ar    1  UNL1        0.0000
    728 C          -9.2107   21.4123   13.4906 C.ar    1  UNL1        0.0000
    729 C           0.7410   14.4792   13.3214 C.ar    1  UNL1        0.0000
    730 C         -12.8514   15.9821   13.3104 C.2     1  UNL1        0.0000
    731 C          -7.1695   13.7201   18.8143 C.3     1  UNL1        0.0000
    732 C          -9.8901    9.3082   21.3568 C.3     1  UNL1        0.0000
    733 C          -4.7741   16.9196   18.6261 C.3     1  UNL1        0.0000
    734 C         -12.1235    6.0294   21.5403 C.2     1  UNL1        0.0000
    735 C          -2.8921   10.5387   13.4507 C.3     1  UNL1        0.0000
    736 C          -9.2291   19.9445   13.4445 C.3     1  UNL1        0.0000
    737 C          -0.5479   13.7701   13.3462 C.3     1  UNL1        0.0000
    738 C         -11.5532   16.7176   13.3470 C.2     1  UNL1        0.0000
    739 C          -9.2618   12.7686   19.9090 C.ar    1  UNL1        0.0000
    740 C          -7.8368   10.3385   20.3313 C.ar    1  UNL1        0.0000
    741 C          -4.8211   19.1317   19.7376 C.ar    1  UNL1        0.0000
    742 C         -12.0332    3.7980   20.4559 C.3     1  UNL1        0.0000
    743 C          -3.0361    8.3830   14.6641 C.ar    1  UNL1        0.0000
    744 C         -13.9751   14.6407   25.6308 C.ar    1  UNL1        0.0000
    745 C           1.3193   14.8569   14.5551 C.ar    1  UNL1        0.0000
    746 C         -18.2475    8.1434   25.4419 C.3     1  UNL1        0.0000
    747 C          -2.7388   17.8249   19.8378 C.ar    1  UNL1        0.0000
    748 C         -14.1145    5.0647   20.3517 C.3     1  UNL1        0.0000
    749 C          -7.2134   11.4219   19.7391 C.ar    1  UNL1        0.0000
    750 C          -9.8865   11.6439   20.4980 C.ar    1  UNL1        0.0000
    751 C          -3.4536    7.3490   25.4597 C.ar    1  UNL1        0.0000
    752 C         -13.4969   15.6279   14.5149 C.3     1  UNL1        0.0000
    753 C          -7.7795    0.8563   25.5906 C.ar    1  UNL1        0.0000
    754 C          -9.2505   22.1376   14.7258 C.ar    1  UNL1        0.0000
    755 N          -9.9687   13.9340   19.7773 N.pl3   1  UNL1        0.0000
    756 N          -9.3841   21.5319   15.9427 N.pl3   1  UNL1        0.0000
    757 N          -3.9217    6.9803   24.2276 N.pl3   1  UNL1        0.0000
    758 N          -1.9916   16.7037   19.6013 N.pl3   1  UNL1        0.0000
    759 N          -2.7822   12.8855   21.0173 N.pl3   1  UNL1        0.0000
    760 N          -4.8019    3.2999   22.7621 N.pl3   1  UNL1        0.0000
    761 O          -3.2319   13.3183   18.4427 O.3     1  UNL1        0.0000
    762 O         -13.8493    9.6244   21.6925 O.2     1  UNL1        0.0000
    763 O          -6.7776    4.9532   23.3690 O.3     1  UNL1        0.0000
    764 O         -10.2672   18.0108   16.8100 O.3     1  UNL1        0.0000
    765 O          -8.9126   17.1624   18.4112 O.3     1  UNL1        0.0000
    766 O          -8.0257    5.8778   21.7335 O.3     1  UNL1        0.0000
    767 O          -1.8959   12.3660   16.8914 O.3     1  UNL1        0.0000
    768 O         -15.0245   10.7183   23.2870 O.2     1  UNL1        0.0000
    769 O          -4.5673   12.6888   16.0935 O.3     1  UNL1        0.0000
    770 O         -12.3748   10.2785   23.9790 O.3     1  UNL1        0.0000
    771 O          -3.1540   14.7051   16.0266 O.3     1  UNL1        0.0000
    772 O         -13.8634    8.3302   24.1632 O.3     1  UNL1        0.0000
    773 O          -9.4235    5.1470   23.9859 O.3     1  UNL1        0.0000
    774 O          -7.6211   17.8784   16.1226 O.3     1  UNL1        0.0000
    775 O          -8.1869    7.2582   24.2391 O.3     1  UNL1        0.0000
    776 O          -8.7779   15.7107   15.9648 O.3     1  UNL1        0.0000
    777 O          -5.9260   13.5320   18.5243 O.3     1  UNL1        0.0000
    778 O         -11.1496    9.3881   21.5441 O.3     1  UNL1        0.0000
    779 O          -4.1451   15.8601   18.2997 O.3     1  UNL1        0.0000
    780 O         -12.8515    7.0020   21.9279 O.2     1  UNL1        0.0000
    781 O          -7.7658    3.6617   25.6802 O.3     1  UNL1        0.0000
    782 O          -9.3236   19.2773   14.5326 O.3     1  UNL1        0.0000
    783 O          -5.9704    5.9849   25.5979 O.3     1  UNL1        0.0000
    784 O         -11.0164   16.8828   14.5013 O.2     1  UNL1        0.0000
    785 O          -6.0034   17.1157   18.2725 O.3     1  UNL1        0.0000
    786 O         -10.8761    5.9349   21.7915 O.2     1  UNL1        0.0000
    787 O          -7.7921   14.7984   18.5118 O.3     1  UNL1        0.0000
    788 O          -9.1698    8.3061   21.6991 O.3     1  UNL1        0.0000
    789 O          -1.0679   13.4843   14.4907 O.3     1  UNL1        0.0000
    790 O         -15.9048    9.6459   25.6136 O.2     1  UNL1        0.0000
    791 O          -2.8383   11.1393   14.5686 O.3     1  UNL1        0.0000
    792 O         -13.9911   11.8818   25.6610 O.3     1  UNL1        0.0000
    793 O          -6.0928   15.1851   16.2541 O.3     1  UNL1        0.0000
    794 O         -10.9143    7.8198   23.8600 O.3     1  UNL1        0.0000
    795 O          -3.6763   13.6147   13.4395 O.3     1  UNL1        0.0000
    796 O          -8.4527   16.8325   13.3547 O.3     1  UNL1        0.0000
    797 N          -8.9607   10.2436   27.0335 N.pl3  15  UNL15       0.0000
    798 N          -8.0335   10.2152   25.0520 N.pl3  15  UNL15       0.0000
    799 C          -9.9486   10.5665   26.1168 C.2    15  UNL15       0.0000
    800 C          -9.3649   10.5525   24.8744 C.2    15  UNL15       0.0000
    801 C          -6.5780   11.4603   23.4651 C.3    15  UNL15       0.0000
    802 C          -9.1123   10.2348   28.4989 C.3    15  UNL15       0.0000
    803 C          -7.8087   10.0297   26.3648 C.3    15  UNL15       0.0000
    804 C          -7.0214   10.0932   23.9786 C.3    15  UNL15       0.0000
    805 H         -10.9729   10.7568   26.4166 H      15  UNL15       0.0000
    806 H          -9.7946   10.7516   23.9003 H      15  UNL15       0.0000
    807 H          -7.4172   12.0098   23.0190 H      15  UNL15       0.0000
    808 H          -8.6506   11.1365   28.9165 H      15  UNL15       0.0000
    809 H          -6.1370   12.0684   24.2646 H      15  UNL15       0.0000
    810 H         -10.1818   10.2311   28.7327 H      15  UNL15       0.0000
    811 H          -5.8293   11.3208   22.6726 H      15  UNL15       0.0000
    812 H          -7.4748    9.4830   23.1881 H      15  UNL15       0.0000
    813 H          -8.6426    9.3324   28.9100 H      15  UNL15       0.0000
    814 H          -6.8657    9.7389   26.8107 H      15  UNL15       0.0000
    815 H          -6.1917    9.5123   24.3988 H      15  UNL15       0.0000
    816 N          -2.4590   18.5134   29.8413 N.3    16  UNL16       0.0000
    817 C          -4.4226   19.0636   27.9265 C.3    16  UNL16       0.0000
    818 C          -2.2939   15.8860   29.4155 C.3    16  UNL16       0.0000
    819 O          -2.2952   20.5986   28.2813 O.2    16  UNL16       0.0000
    820 O          -3.9950   20.4069   30.1198 O.2    16  UNL16       0.0000
    821 O          -0.2846   17.3270   30.2657 O.2    16  UNL16       0.0000
    822 O          -0.9987   17.6265   27.8634 O.2    16  UNL16       0.0000
    823 F          -5.3829   18.3887   28.6141 F      16  UNL16       0.0000
    824 F          -5.0138   20.0968   27.2630 F      16  UNL16       0.0000
    825 F          -3.8961   18.2251   27.0030 F      16  UNL16       0.0000
    826 F          -1.5762   14.8796   28.8437 F      16  UNL16       0.0000
    827 F          -2.5079   15.5507   30.7203 F      16  UNL16       0.0000
    828 F          -3.4962   15.9299   28.7839 F      16  UNL16       0.0000
    829 S          -3.1550   19.7538   29.1274 S.O2   16  UNL16       0.0000
    830 S          -1.3405   17.5064   29.2737 S.O2   16  UNL16       0.0000
    831 TI        -18.8178    2.5550   38.2441 Ti      1  UNL1        0.0000
    832 TI         -7.7399    5.6177   28.6334 Ti      1  UNL1        0.0000
    833 TI        -14.2729   -0.7598   36.3482 Ti      1  UNL1        0.0000
    834 TI        -12.3321    8.9315   30.5250 Ti      1  UNL1        0.0000
    835 TI        -14.0047    9.8199   28.5579 Ti      1  UNL1        0.0000
    836 TI        -12.8017   -1.9245   38.3174 Ti      1  UNL1        0.0000
    837 TI        -17.3706    1.2547   36.3450 Ti      1  UNL1        0.0000
    838 TI         -9.4557    6.6615   30.4821 Ti      1  UNL1        0.0000
    839 H         -12.1700    1.9230   33.8681 H       1  UNL1        0.0000
    840 H         -15.8556   -3.7469   34.1538 H       1  UNL1        0.0000
    841 H         -10.7062   11.7173   32.7550 H       1  UNL1        0.0000
    842 H         -18.8054    6.5753   38.0759 H       5  UNL5        0.0000
    843 H          -7.9137    1.4877   28.9430 H       1  UNL1        0.0000
    844 H         -22.5708    0.9425   37.8951 H       6  UNL6        0.0000
    845 H          -4.0673    7.0955   28.8221 H       1  UNL1        0.0000
    846 H         -12.5704   -6.0807   38.0129 H       1  UNL1        0.0000
    847 H         -17.9083    8.4360   28.8241 H       1  UNL1        0.0000
    848 H         -11.0308    3.8805   32.7825 H       1  UNL1        0.0000
    849 H         -15.7840    4.2247   34.1685 H       1  UNL1        0.0000
    850 H         -19.5220   -1.5141   33.9648 H       1  UNL1        0.0000
    851 H         -13.1390    8.3963   26.6371 H       1  UNL1        0.0000
    852 H          -8.7599    7.0819   26.8079 H       1  UNL1        0.0000
    853 H         -15.3984    0.9152   37.9140 H       1  UNL1        0.0000
    854 H         -11.4002    7.1814   28.9291 H       1  UNL1        0.0000
    855 H         -12.1641   -2.1048   32.8697 H       1  UNL1        0.0000
    856 H         -14.5032   10.0834   34.0256 H       1  UNL1        0.0000
    857 H         -21.8465    4.3648   35.8401 H       1  UNL1        0.0000
    858 H          -4.9035    3.6672   31.1142 H       1  UNL1        0.0000
    859 H         -19.3833    2.7157   32.7268 H       1  UNL1        0.0000
    860 H         -16.9330   12.0085   31.0449 H       1  UNL1        0.0000
    861 H         -15.8292    6.4215   33.2547 H       1  UNL1        0.0000
    862 H         -14.4158    7.1856   32.5579 H       1  UNL1        0.0000
    863 H         -14.1695   13.0376   29.3455 H       1  UNL1        0.0000
    864 H          -7.9499   -0.5665   30.1426 H       1  UNL1        0.0000
    865 H          -8.3721   -0.0649   36.7692 H       7  UNL7        0.0000
    866 H          -9.7233   -0.8727   37.5368 H       7  UNL7        0.0000
    867 H          -5.8478    9.2692   33.1167 H       1  UNL1        0.0000
    868 H          -7.2195    8.5376   32.3079 H       1  UNL1        0.0000
    869 H          -7.7204    5.6278   35.3619 H       1  UNL1        0.0000
    870 H          -8.2160    5.8943   33.6986 H       1  UNL1        0.0000
    871 H          -8.8057   -4.6908   36.3158 H       1  UNL1        0.0000
    872 H         -10.1415   -3.6984   36.8768 H       1  UNL1        0.0000
    873 C          -7.0678    5.1163   31.4787 C.3     1  UNL1        0.0000
    874 C         -19.6507    2.9220   35.4251 C.2     1  UNL1        0.0000
    875 C         -11.9064   -2.3432   35.4790 C.3     1  UNL1        0.0000
    876 C         -14.7917   10.3629   31.3929 C.3     1  UNL1        0.0000
    877 C          -6.2352    4.5439   32.5470 C.ar    1  UNL1        0.0000
    878 C         -20.5418    3.4978   34.3808 C.2     1  UNL1        0.0000
    879 C         -11.0559   -2.9993   34.4723 C.ar    1  UNL1        0.0000
    880 C         -15.6376   10.9867   32.4493 C.ar    1  UNL1        0.0000
    881 C          -6.5358    4.7333   33.9357 C.ar    1  UNL1        0.0000
    882 C         -20.2560    3.2956   33.0132 C.3     1  UNL1        0.0000
    883 C          -9.9695   -3.8631   34.8331 C.ar    1  UNL1        0.0000
    884 C         -16.7165   11.8257   32.0937 C.ar    1  UNL1        0.0000
    885 C         -15.3409   10.7351   33.7846 C.ar    1  UNL1        0.0000
    886 C         -11.3312   -2.7638   33.1053 C.ar    1  UNL1        0.0000
    887 C          -5.0971    3.7904   32.1773 C.ar    1  UNL1        0.0000
    888 C         -21.6540    4.2324   34.7772 C.3     1  UNL1        0.0000
    889 C         -12.7476    5.1611   32.8696 C.ar    1  UNL1        0.0000
    890 C         -14.0486    2.9762   34.0651 C.ar    1  UNL1        0.0000
    891 C          -8.9566   10.4787   32.7752 C.ar    1  UNL1        0.0000
    892 C         -17.6246   -2.5416   34.1200 C.2     1  UNL1        0.0000
    893 C          -7.8013    1.5700   26.8085 C.ar    1  UNL1        0.0000
    894 C         -14.0662   13.9326   26.8516 C.ar    1  UNL1        0.0000
    895 C          -4.1145    6.9995   26.6824 C.ar    1  UNL1        0.0000
    896 C         -17.7070    8.5023   26.6714 C.2     1  UNL1        0.0000
    897 C         -12.0251    6.2404   32.1753 C.3     1  UNL1        0.0000
    898 C         -14.7456    1.8285   34.7178 C.3     1  UNL1        0.0000
    899 C          -9.6296    9.4399   31.9871 C.3     1  UNL1        0.0000
    900 C         -16.9790   -1.4504   34.9013 C.2     1  UNL1        0.0000
    901 C          -7.7476    3.0589   26.8117 C.3     1  UNL1        0.0000
    902 C         -14.0847   12.4648   26.8055 C.3     1  UNL1        0.0000
    903 C          -5.4035    6.2904   26.7072 C.3     1  UNL1        0.0000
    904 C         -16.4087    9.2378   26.7080 C.2     1  UNL1        0.0000
    905 C         -14.1173    5.2889   33.2700 C.ar    1  UNL1        0.0000
    906 C         -12.6923    2.8588   33.6923 C.ar    1  UNL1        0.0000
    907 C          -9.6766   11.6520   33.0986 C.ar    1  UNL1        0.0000
    908 C         -16.8887   -3.6817   33.8169 C.3     1  UNL1        0.0000
    909 C          -7.8916    0.9032   28.0251 C.ar    1  UNL1        0.0000
    910 C         -18.8307    7.1609   38.9918 C.2     5  UNL5        0.0000
    911 C          -3.5362    7.3771   27.9161 C.ar    1  UNL1        0.0000
    912 C         -23.1031    0.6637   38.8029 C.3    17  UNL17       0.0000
    913 C          -7.5943   10.3452   33.1988 C.ar    1  UNL1        0.0000
    914 C         -18.9700   -2.4150   33.7127 C.3     1  UNL1        0.0000
    915 C         -12.0689    3.9421   33.1001 C.ar    1  UNL1        0.0000
    916 C         -14.7421    4.1641   33.8590 C.ar    1  UNL1        0.0000
    917 C          -8.3091   -0.1307   38.8207 C.2     7  UNL7        0.0000
    918 C         -18.3524    8.1481   27.8759 C.3     1  UNL1        0.0000
    919 C         -12.6350   -6.6234   38.9516 C.2     1  UNL1        0.0000
    920 C         -14.1060   14.6579   28.0868 C.ar    1  UNL1        0.0000
    921 N         -14.8243    6.4542   33.1383 N.pl3   1  UNL1        0.0000
    922 N         -14.2396   14.0522   29.3037 N.pl3   1  UNL1        0.0000
    923 N          -8.7772   -0.4994   37.5886 N.pl3   7  UNL7        0.0000
    924 N          -6.8471    9.2239   32.9623 N.pl3   1  UNL1        0.0000
    925 N          -7.6377    5.4058   34.3783 N.pl3   1  UNL1        0.0000
    926 N          -9.6574   -4.1799   36.1231 N.pl3   1  UNL1        0.0000
    927 O          -8.0874    5.8386   31.8036 O.3     1  UNL1        0.0000
    928 O         -18.7049    2.1447   35.0535 O.2     1  UNL1        0.0000
    929 O         -11.6331   -2.5266   36.7300 O.3     1  UNL1        0.0000
    930 O         -15.1227   10.5311   30.1710 O.3     1  UNL1        0.0000
    931 O         -13.7681    9.6826   31.7722 O.3     1  UNL1        0.0000
    932 O         -12.8813   -1.6019   35.0945 O.3     1  UNL1        0.0000
    933 O          -6.7515    4.8862   30.2524 O.3     1  UNL1        0.0000
    934 O         -19.8800    3.2386   36.6480 O.2     1  UNL1        0.0000
    935 O          -9.4228    5.2090   29.4545 O.3     1  UNL1        0.0000
    936 O         -17.2304    2.7988   37.3400 O.3     1  UNL1        0.0000
    937 O          -8.0095    7.2253   29.3876 O.3     1  UNL1        0.0000
    938 O         -18.7189    0.8504   37.5242 O.3     1  UNL1        0.0000
    939 O         -14.2790   -2.3328   37.3469 O.3     1  UNL1        0.0000
    940 O         -12.4767   10.3987   29.4836 O.3     1  UNL1        0.0000
    941 O         -13.0425   -0.2215   37.6001 O.3     1  UNL1        0.0000
    942 O         -13.6334    8.2310   29.3258 O.3     1  UNL1        0.0000
    943 O         -10.7815    6.0523   31.8853 O.3     1  UNL1        0.0000
    944 O         -16.0051    1.9084   34.9051 O.3     1  UNL1        0.0000
    945 O          -9.0006    8.3803   31.6607 O.3     1  UNL1        0.0000
    946 O         -17.7070   -0.4777   35.2889 O.2     1  UNL1        0.0000
    947 O         -12.6213   -3.8180   39.0412 O.3     1  UNL1        0.0000
    948 O         -14.1791   11.7976   27.8936 O.3     1  UNL1        0.0000
    949 O         -10.8259   -1.4948   38.9589 O.3     1  UNL1        0.0000
    950 O         -15.8719    9.4031   27.8623 O.2     1  UNL1        0.0000
    951 O         -10.8589    9.6359   31.6335 O.3     1  UNL1        0.0000
    952 O         -15.7317   -1.5448   35.1525 O.2     1  UNL1        0.0000
    953 O         -12.6476    7.3186   31.8728 O.3     1  UNL1        0.0000
    954 O         -14.0253    0.8264   35.0601 O.3     1  UNL1        0.0000
    955 O          -5.9234    6.0046   27.8517 O.3     1  UNL1        0.0000
    956 O         -20.7604    2.1662   38.9746 O.3     1  UNL1        0.0000
    957 O          -7.6938    3.6596   27.9296 O.3     1  UNL1        0.0000
    958 O         -18.8467    4.4020   39.0220 O.3     1  UNL1        0.0000
    959 O         -10.9483    7.7053   29.6151 O.3     1  UNL1        0.0000
    960 O         -15.7698    0.3401   37.2210 O.3     1  UNL1        0.0000
    961 O          -8.5319    6.1350   26.8005 O.3     1  UNL1        0.0000
    962 O         -13.3083    9.3528   26.7157 O.3     1  UNL1        0.0000
    963 N         -13.8162    2.7639   40.3945 N.pl3  18  UNL18       0.0000
    964 N         -12.8891    2.7355   38.4130 N.pl3  18  UNL18       0.0000
    965 C         -14.8041    3.0867   39.4778 C.2    18  UNL18       0.0000
    966 C         -14.2205    3.0727   38.2354 C.2    18  UNL18       0.0000
    967 C         -11.4335    3.9805   36.8261 C.3    18  UNL18       0.0000
    968 C         -13.9678    2.7551   41.8599 C.3    18  UNL18       0.0000
    969 C         -12.6642    2.5499   39.7258 C.3    18  UNL18       0.0000
    970 C         -11.8770    2.6135   37.3396 C.3    18  UNL18       0.0000
    971 H         -15.8284    3.2770   39.7776 H      18  UNL18       0.0000
    972 H         -14.6502    3.2719   37.2613 H      18  UNL18       0.0000
    973 H         -12.2728    4.5301   36.3800 H      18  UNL18       0.0000
    974 H         -13.5061    3.6568   42.2775 H      18  UNL18       0.0000
    975 H         -10.9925    4.5887   37.6256 H      18  UNL18       0.0000
    976 H         -15.0373    2.7514   42.0937 H      18  UNL18       0.0000
    977 H         -10.6848    3.8411   36.0336 H      18  UNL18       0.0000
    978 H         -12.3303    2.0032   36.5491 H      18  UNL18       0.0000
    979 H         -13.4981    1.8526   42.2710 H      18  UNL18       0.0000
    980 H         -11.7213    2.2591   40.1717 H      18  UNL18       0.0000
    981 H         -11.0472    2.0325   37.7597 H      18  UNL18       0.0000
    982 N          -7.3145   11.0337   43.2023 N.3    19  UNL19       0.0000
    983 C          -9.2781   11.5839   41.2875 C.3    19  UNL19       0.0000
    984 C          -7.1494    8.4062   42.7765 C.3    19  UNL19       0.0000
    985 O          -7.1507   13.1188   41.6423 O.2    19  UNL19       0.0000
    986 O          -8.8506   12.9271   43.4808 O.2    19  UNL19       0.0000
    987 O          -5.1401    9.8472   43.6267 O.2    19  UNL19       0.0000
    988 O          -5.8543   10.1468   41.2244 O.2    19  UNL19       0.0000
    989 F         -10.2384   10.9089   41.9751 F      19  UNL19       0.0000
    990 F          -9.8694   12.6170   40.6240 F      19  UNL19       0.0000
    991 F          -8.7517   10.7453   40.3640 F      19  UNL19       0.0000
    992 F          -6.4317    7.3999   42.2047 F      19  UNL19       0.0000
    993 F          -7.3634    8.0710   44.0813 F      19  UNL19       0.0000
    994 F          -8.3517    8.4502   42.1449 F      19  UNL19       0.0000
    995 S          -8.0106   12.2741   42.4884 S.O2   19  UNL19       0.0000
    996 S          -6.1960   10.0267   42.6347 S.O2   19  UNL19       0.0000
    997 TI        -15.2436   32.6799   11.5207 Ti      1  UNL1        0.0000
    998 TI         -4.1657   35.7427    1.9100 Ti      1  UNL1        0.0000
    999 TI        -10.6988   29.3651    9.6248 Ti      1  UNL1        0.0000
   1000 TI         -8.7579   39.0564    3.8016 Ti      1  UNL1        0.0000
   1001 TI        -10.4305   39.9449    1.8345 Ti      1  UNL1        0.0000
   1002 TI         -9.2275   28.2004   11.5940 Ti      1  UNL1        0.0000
   1003 TI        -13.7964   31.3796    9.6216 Ti      1  UNL1        0.0000
   1004 TI         -5.8815   36.7864    3.7587 Ti      1  UNL1        0.0000
   1005 H          -8.5959   32.0479    7.1447 H       1  UNL1        0.0000
   1006 H         -12.2814   26.3781    7.4304 H       1  UNL1        0.0000
   1007 H          -7.1320   41.8423    6.0316 H       1  UNL1        0.0000
   1008 H         -15.2312   36.7002   11.3525 H       1  UNL1        0.0000
   1009 H          -4.3395   31.6126    2.2196 H       1  UNL1        0.0000
   1010 H         -18.9966   31.0675   11.1717 H       1  UNL1        0.0000
   1011 H          -0.4931   37.2205    2.0987 H       1  UNL1        0.0000
   1012 H          -8.9962   24.0442   11.2895 H       1  UNL1        0.0000
   1013 H         -14.3341   38.5610    2.1007 H       1  UNL1        0.0000
   1014 H          -7.4566   34.0055    6.0591 H       1  UNL1        0.0000
   1015 H         -12.2098   34.3496    7.4450 H       1  UNL1        0.0000
   1016 H         -15.9478   28.6108    7.2414 H       1  UNL1        0.0000
   1017 H          -9.5648   38.5212   -0.0863 H       1  UNL1        0.0000
   1018 H          -5.1857   37.2069    0.0845 H       1  UNL1        0.0000
   1019 H         -11.8242   31.0401   11.1906 H       1  UNL1        0.0000
   1020 H          -7.8260   37.3063    2.2057 H       1  UNL1        0.0000
   1021 H          -8.5899   28.0201    6.1463 H       1  UNL1        0.0000
   1022 H         -10.9290   40.2083    7.3022 H       1  UNL1        0.0000
   1023 H         -18.2723   34.4898    9.1167 H       1  UNL1        0.0000
   1024 H          -1.3293   33.7921    4.3908 H       1  UNL1        0.0000
   1025 H         -15.8091   32.8406    6.0034 H       1  UNL1        0.0000
   1026 H         -13.3588   42.1334    4.3215 H       1  UNL1        0.0000
   1027 H         -12.2550   36.5464    6.5313 H       1  UNL1        0.0000
   1028 H         -10.8416   37.3105    5.8345 H       1  UNL1        0.0000
   1029 H         -10.5953   43.1625    2.6221 H       1  UNL1        0.0000
   1030 H          -4.3757   29.5585    3.4192 H       1  UNL1        0.0000
   1031 H          -4.7979   30.0601   10.0458 H       1  UNL1        0.0000
   1032 H          -6.1491   29.2523   10.8134 H       1  UNL1        0.0000
   1033 H          -2.2736   39.3942    6.3933 H       1  UNL1        0.0000
   1034 H          -3.6453   38.6626    5.5845 H       1  UNL1        0.0000
   1035 H          -4.1462   35.7527    8.6385 H       1  UNL1        0.0000
   1036 H          -4.6418   36.0193    6.9752 H       1  UNL1        0.0000
   1037 H          -5.2315   25.4341    9.5924 H       1  UNL1        0.0000
   1038 H          -6.5673   26.4265   10.1534 H       1  UNL1        0.0000
   1039 C          -3.4936   35.2412    4.7553 C.3     1  UNL1        0.0000
   1040 C         -16.0765   33.0469    8.7017 C.2     1  UNL1        0.0000
   1041 C          -8.3322   27.7817    8.7556 C.3     1  UNL1        0.0000
   1042 C         -11.2176   40.4879    4.6695 C.2     1  UNL1        0.0000
   1043 C          -2.6611   34.6688    5.8236 C.ar    1  UNL1        0.0000
   1044 C         -16.9676   33.6227    7.6573 C.2     1  UNL1        0.0000
   1045 C          -7.4817   27.1257    7.7489 C.ar    1  UNL1        0.0000
   1046 C         -12.0634   41.1116    5.7259 C.2     1  UNL1        0.0000
   1047 C          -2.9616   34.8582    7.2123 C.ar    1  UNL1        0.0000
   1048 C         -16.6818   33.4205    6.2898 C.3     1  UNL1        0.0000
   1049 C          -6.3953   26.2618    8.1097 C.ar    1  UNL1        0.0000
   1050 C         -13.1423   41.9507    5.3703 C.3     1  UNL1        0.0000
   1051 C         -11.7667   40.8601    7.0612 C.3     1  UNL1        0.0000
   1052 C          -7.7570   27.3611    6.3819 C.ar    1  UNL1        0.0000
   1053 C          -1.5229   33.9154    5.4539 C.ar    1  UNL1        0.0000
   1054 C         -18.0798   34.3573    8.0537 C.3     1  UNL1        0.0000
   1055 C          -9.1734   35.2860    6.1462 C.ar    1  UNL1        0.0000
   1056 C         -10.4745   33.1011    7.3417 C.ar    1  UNL1        0.0000
   1057 C          -5.3824   40.6037    6.0518 C.2     1  UNL1        0.0000
   1058 C         -14.0504   27.5834    7.3966 C.2     1  UNL1        0.0000
   1059 C          -4.2271   31.6949    0.0851 C.2     1  UNL1        0.0000
   1060 C         -10.4921   44.0575    0.1281 C.2     1  UNL1        0.0000
   1061 C          -0.5403   37.1244   -0.0410 C.2     1  UNL1        0.0000
   1062 C         -14.1328   38.6273   -0.0520 C.2     1  UNL1        0.0000
   1063 C          -8.4509   36.3653    5.4519 C.3     1  UNL1        0.0000
   1064 C         -11.1714   31.9534    7.9944 C.3     1  UNL1        0.0000
   1065 C          -6.0554   39.5648    5.2637 C.2     1  UNL1        0.0000
   1066 C         -13.4048   28.6746    8.1779 C.2     1  UNL1        0.0000
   1067 C          -4.1735   33.1839    0.0883 C.2     1  UNL1        0.0000
   1068 C         -10.5105   42.5897    0.0821 C.2     1  UNL1        0.0000
   1069 C          -1.8293   36.4153   -0.0162 C.2     1  UNL1        0.0000
   1070 C         -12.8345   39.3628   -0.0154 C.2     1  UNL1        0.0000
   1071 C         -10.5431   35.4138    6.5466 C.ar    1  UNL1        0.0000
   1072 C          -9.1181   32.9837    6.9688 C.ar    1  UNL1        0.0000
   1073 C          -6.1024   41.7769    6.3752 C.3     1  UNL1        0.0000
   1074 C         -13.3145   26.4432    7.0935 C.3     1  UNL1        0.0000
   1075 C          -4.3174   31.0282    1.3017 C.2     1  UNL1        0.0000
   1076 C         -15.2565   37.2859   12.2683 C.3     1  UNL1        0.0000
   1077 C           0.0379   37.5021    1.1927 C.2     1  UNL1        0.0000
   1078 C         -19.5289   30.7886   12.0795 C.3     1  UNL1        0.0000
   1079 C          -4.0201   40.4701    6.4754 C.3     1  UNL1        0.0000
   1080 C         -15.3958   27.7099    6.9892 C.3     1  UNL1        0.0000
   1081 C          -8.4947   34.0671    6.3767 C.ar    1  UNL1        0.0000
   1082 C         -11.1679   34.2891    7.1356 C.ar    1  UNL1        0.0000
   1083 C          -4.7349   29.9942   12.0973 C.ar    1  UNL1        0.0000
   1084 C         -14.7782   38.2731    1.1525 C.3     1  UNL1        0.0000
   1085 C          -9.0609   23.5015   12.2282 C.ar    1  UNL1        0.0000
   1086 C         -10.5319   44.7828    1.3634 C.2     1  UNL1        0.0000
   1087 N         -11.2501   36.5792    6.4149 N.pl3   1  UNL1        0.0000
   1088 N         -10.6654   44.1771    2.5803 N.2     1  UNL1        0.0000
   1089 N          -5.2030   29.6255   10.8652 N.pl3   1  UNL1        0.0000
   1090 N          -3.2729   39.3489    6.2389 N.3     1  UNL1        0.0000
   1091 N          -4.0635   35.5307    7.6549 N.pl3   1  UNL1        0.0000
   1092 N          -6.0832   25.9451    9.3997 N.pl3   1  UNL1        0.0000
   1093 O          -4.5132   35.9635    5.0802 O.3     1  UNL1        0.0000
   1094 O         -15.1307   32.2696    8.3301 O.2     1  UNL1        0.0000
   1095 O          -8.0589   27.5984   10.0066 O.3     1  UNL1        0.0000
   1096 O         -11.5485   40.6560    3.4476 O.2     1  UNL1        0.0000
   1097 O         -10.1939   39.8076    5.0488 O.2     1  UNL1        0.0000
   1098 O          -9.3071   28.5230    8.3711 O.3     1  UNL1        0.0000
   1099 O          -3.1773   35.0112    3.5290 O.3     1  UNL1        0.0000
   1100 O         -16.3058   33.3635    9.9246 O.2     1  UNL1        0.0000
   1101 O          -5.8486   35.3340    2.7311 O.3     1  UNL1        0.0000
   1102 O         -13.6562   32.9237   10.6166 O.3     1  UNL1        0.0000
   1103 O          -4.4353   37.3503    2.6642 O.3     1  UNL1        0.0000
   1104 O         -15.1447   30.9754   10.8008 O.3     1  UNL1        0.0000
   1105 O         -10.7048   27.7922   10.6235 O.3     1  UNL1        0.0000
   1106 O          -8.9025   40.5236    2.7602 O.3     1  UNL1        0.0000
   1107 O          -9.4683   29.9034   10.8767 O.3     1  UNL1        0.0000
   1108 O         -10.0593   38.3559    2.6024 O.3     1  UNL1        0.0000
   1109 O          -7.2073   36.1772    5.1619 O.3     1  UNL1        0.0000
   1110 O         -12.4309   32.0333    8.1817 O.3     1  UNL1        0.0000
   1111 O          -5.4264   38.5053    4.9373 O.2     1  UNL1        0.0000
   1112 O         -14.1328   29.6472    8.5655 O.2     1  UNL1        0.0000
   1113 O          -9.0471   26.3069   12.3178 O.3     1  UNL1        0.0000
   1114 O         -10.6049   41.9225    1.1702 O.2     1  UNL1        0.0000
   1115 O          -7.2517   28.6301   12.2355 O.3     1  UNL1        0.0000
   1116 O         -12.2977   39.5280    1.1389 O.2     1  UNL1        0.0000
   1117 O          -7.2847   39.7609    4.9101 O.2     1  UNL1        0.0000
   1118 O         -12.1575   28.5801    8.4291 O.2     1  UNL1        0.0000
   1119 O          -9.0734   37.4436    5.1494 O.3     1  UNL1        0.0000
   1120 O         -10.4512   30.9513    8.3367 O.3     1  UNL1        0.0000
   1121 O          -2.3492   36.1295    1.1283 O.2     1  UNL1        0.0000
   1122 O         -17.1862   32.2911   12.2512 O.2     1  UNL1        0.0000
   1123 O          -4.1196   33.7845    1.2062 O.2     1  UNL1        0.0000
   1124 O         -15.2725   34.5270   12.2986 O.2     1  UNL1        0.0000
   1125 O          -7.3741   37.8303    2.8917 O.3     1  UNL1        0.0000
   1126 O         -12.1956   30.4650   10.4976 O.3     1  UNL1        0.0000
   1127 O          -4.9577   36.2599    0.0771 O.3     1  UNL1        0.0000
   1128 O          -9.7341   39.4777   -0.0077 O.3     1  UNL1        0.0000
   1129 N         -10.2420   32.8888   13.6711 N.pl3  20  UNL20       0.0000
   1130 N          -9.3149   32.8604   11.6896 N.pl3  20  UNL20       0.0000
   1131 C         -11.2299   33.2117   12.7544 C.2    20  UNL20       0.0000
   1132 C         -10.6463   33.1977   11.5120 C.2    20  UNL20       0.0000
   1133 C          -7.8593   34.1055   10.1027 C.3    20  UNL20       0.0000
   1134 C         -10.3936   32.8800   15.1365 C.3    20  UNL20       0.0000
   1135 C          -9.0900   32.6749   13.0024 C.3    20  UNL20       0.0000
   1136 C          -8.3028   32.7384   10.6162 C.3    20  UNL20       0.0000
   1137 H         -12.2542   33.4020   13.0542 H      20  UNL20       0.0000
   1138 H         -11.0760   33.3968   10.5379 H      20  UNL20       0.0000
   1139 H          -8.6986   34.6550    9.6566 H      20  UNL20       0.0000
   1140 H          -9.9319   33.7817   15.5541 H      20  UNL20       0.0000
   1141 H          -7.4183   34.7136   10.9022 H      20  UNL20       0.0000
   1142 H         -11.4631   32.8763   15.3703 H      20  UNL20       0.0000
   1143 H          -7.1106   33.9660    9.3102 H      20  UNL20       0.0000
   1144 H          -8.7561   32.1282    9.8256 H      20  UNL20       0.0000
   1145 H          -9.9239   31.9776   15.5476 H      20  UNL20       0.0000
   1146 H          -8.1471   32.3841   13.4483 H      20  UNL20       0.0000
   1147 H          -7.4730   32.1575   11.0363 H      20  UNL20       0.0000
   1148 N          -3.7403   41.1586   16.4789 N.3    21  UNL21       0.0000
   1149 C          -5.7039   41.7088   14.5641 C.3    21  UNL21       0.0000
   1150 C          -3.5752   38.5312   16.0531 C.3    21  UNL21       0.0000
   1151 O          -3.5765   43.2438   14.9189 O.2    21  UNL21       0.0000
   1152 O          -5.2764   43.0521   16.7574 O.2    21  UNL21       0.0000
   1153 O          -1.5659   39.9722   16.9033 O.2    21  UNL21       0.0000
   1154 O          -2.2801   40.2717   14.5010 O.2    21  UNL21       0.0000
   1155 F          -6.6642   41.0339   15.2517 F      21  UNL21       0.0000
   1156 F          -6.2952   42.7420   13.9006 F      21  UNL21       0.0000
   1157 F          -5.1775   40.8703   13.6406 F      21  UNL21       0.0000
   1158 F          -2.8575   37.5248   15.4813 F      21  UNL21       0.0000
   1159 F          -3.7892   38.1959   17.3578 F      21  UNL21       0.0000
   1160 F          -4.7775   38.5751   15.4215 F      21  UNL21       0.0000
   1161 S          -4.4364   42.3990   15.7650 S.O2   21  UNL21       0.0000
   1162 S          -2.6218   40.1516   15.9113 S.O2   21  UNL21       0.0000
   1163 TI        -20.0992   25.2002   24.8817 Ti      1  UNL1        0.0000
   1164 TI         -9.0212   28.2629   15.2710 Ti      1  UNL1        0.0000
   1165 TI        -15.5543   21.8854   22.9858 Ti      1  UNL1        0.0000
   1166 TI        -13.6134   31.5767   17.1626 Ti      1  UNL1        0.0000
   1167 TI        -15.2860   32.4651   15.1955 Ti      1  UNL1        0.0000
   1168 TI        -14.0830   20.7207   24.9550 Ti      1  UNL1        0.0000
   1169 TI        -18.6520   23.8999   22.9826 Ti      1  UNL1        0.0000
   1170 TI        -10.7370   29.3067   17.1197 Ti      1  UNL1        0.0000
   1171 H         -13.4514   24.5682   20.5057 H       1  UNL1        0.0000
   1172 H         -17.1370   18.8983   20.7914 H       1  UNL1        0.0000
   1173 H         -11.9875   34.3625   19.3926 H       1  UNL1        0.0000
   1174 H         -20.0867   29.2205   24.7135 H       1  UNL1        0.0000
   1175 H          -9.1951   24.1329   15.5806 H       1  UNL1        0.0000
   1176 H         -23.8521   23.5877   24.5327 H       1  UNL1        0.0000
   1177 H          -5.3487   29.7407   15.4597 H       1  UNL1        0.0000
   1178 H         -13.8517   16.5645   24.6505 H       1  UNL1        0.0000
   1179 H         -19.1896   31.0812   15.4617 H       1  UNL1        0.0000
   1180 H         -12.3121   26.5257   19.4201 H       1  UNL1        0.0000
   1181 H         -17.0653   26.8699   20.8060 H       1  UNL1        0.0000
   1182 H         -20.8033   21.1311   20.6023 H       1  UNL1        0.0000
   1183 H         -14.4203   31.0415   13.2747 H       1  UNL1        0.0000
   1184 H         -10.0412   29.7271   13.4455 H       1  UNL1        0.0000
   1185 H         -16.6797   23.5604   24.5516 H       1  UNL1        0.0000
   1186 H         -12.6815   29.8266   15.5667 H       1  UNL1        0.0000
   1187 H         -13.4455   20.5404   19.5073 H       1  UNL1        0.0000
   1188 H         -15.7846   32.7286   20.6632 H       1  UNL1        0.0000
   1189 H         -23.1278   27.0100   22.4777 H       1  UNL1        0.0000
   1190 H          -6.1849   26.3124   17.7518 H       1  UNL1        0.0000
   1191 H         -20.6646   25.3609   19.3644 H       1  UNL1        0.0000
   1192 H         -18.2143   34.6537   17.6825 H       1  UNL1        0.0000
   1193 H         -17.1105   29.0667   19.8923 H       1  UNL1        0.0000
   1194 H         -15.6972   29.8308   19.1955 H       1  UNL1        0.0000
   1195 H         -15.4508   35.6828   15.9831 H       1  UNL1        0.0000
   1196 H          -9.2312   22.0787   16.7801 H       1  UNL1        0.0000
   1197 H          -9.6534   22.5803   23.4068 H       1  UNL1        0.0000
   1198 H         -11.0046   21.7725   24.1744 H       1  UNL1        0.0000
   1199 H          -7.1291   31.9144   19.7543 H       1  UNL1        0.0000
   1200 H          -8.5008   31.1828   18.9455 H       1  UNL1        0.0000
   1201 H          -9.0017   28.2730   21.9995 H       1  UNL1        0.0000
   1202 H          -9.4973   28.5395   20.3362 H       1  UNL1        0.0000
   1203 H         -10.0870   17.9544   22.9533 H       1  UNL1        0.0000
   1204 H         -11.4229   18.9468   23.5144 H       1  UNL1        0.0000
   1205 C          -8.3492   27.7615   18.1163 C.3     1  UNL1        0.0000
   1206 C         -20.9320   25.5672   22.0627 C.2     1  UNL1        0.0000
   1207 C         -13.1877   20.3020   22.1166 C.3     1  UNL1        0.0000
   1208 C         -16.0731   33.0081   18.0305 C.2     1  UNL1        0.0000
   1209 C          -7.5166   27.1891   19.1846 C.ar    1  UNL1        0.0000
   1210 C         -21.8231   26.1430   21.0183 C.2     1  UNL1        0.0000
   1211 C         -12.3372   19.6459   21.1099 C.ar    1  UNL1        0.0000
   1212 C         -16.9190   33.6319   19.0869 C.2     1  UNL1        0.0000
   1213 C          -7.8171   27.3785   20.5733 C.ar    1  UNL1        0.0000
   1214 C         -21.5374   25.9408   19.6508 C.3     1  UNL1        0.0000
   1215 C         -11.2508   18.7821   21.4707 C.ar    1  UNL1        0.0000
   1216 C         -17.9978   34.4709   18.7313 C.3     1  UNL1        0.0000
   1217 C         -16.6222   33.3803   20.4222 C.3     1  UNL1        0.0000
   1218 C         -12.6126   19.8814   19.7429 C.ar    1  UNL1        0.0000
   1219 C          -6.3784   26.4356   18.8149 C.ar    1  UNL1        0.0000
   1220 C         -22.9353   26.8776   21.4147 C.3     1  UNL1        0.0000
   1221 C         -14.0289   27.8063   19.5072 C.ar    1  UNL1        0.0000
   1222 C         -15.3300   25.6214   20.7027 C.ar    1  UNL1        0.0000
   1223 C         -10.2379   33.1239   19.4128 C.2     1  UNL1        0.0000
   1224 C         -18.9060   20.1036   20.7576 C.2     1  UNL1        0.0000
   1225 C          -9.0826   24.2152   13.4461 C.ar    1  UNL1        0.0000
   1226 C         -15.3476   36.5778   13.4891 C.2     1  UNL1        0.0000
   1227 C          -5.3958   29.6447   13.3200 C.ar    1  UNL1        0.0000
   1228 C         -18.9883   31.1475   13.3090 C.2     1  UNL1        0.0000
   1229 C         -13.3064   28.8856   18.8129 C.3     1  UNL1        0.0000
   1230 C         -16.0269   24.4737   21.3554 C.3     1  UNL1        0.0000
   1231 C         -10.9110   32.0851   18.6247 C.2     1  UNL1        0.0000
   1232 C         -18.2603   21.1948   21.5389 C.2     1  UNL1        0.0000
   1233 C          -9.0290   25.7041   13.4493 C.3     1  UNL1        0.0000
   1234 C         -15.3660   35.1100   13.4431 C.2     1  UNL1        0.0000
   1235 C          -6.6848   28.9356   13.3448 C.3     1  UNL1        0.0000
   1236 C         -17.6901   31.8830   13.3456 C.2     1  UNL1        0.0000
   1237 C         -15.3987   27.9341   19.9076 C.ar    1  UNL1        0.0000
   1238 C         -13.9736   25.5040   20.3298 C.ar    1  UNL1        0.0000
   1239 C         -10.9580   34.2972   19.7362 C.3     1  UNL1        0.0000
   1240 C         -18.1700   18.9635   20.4545 C.3     1  UNL1        0.0000
   1241 C          -9.1729   23.5484   14.6627 C.ar    1  UNL1        0.0000
   1242 C         -20.1120   29.8061   25.6293 C.3     1  UNL1        0.0000
   1243 C          -4.8176   30.0223   14.5537 C.ar    1  UNL1        0.0000
   1244 C         -24.3844   23.3089   25.4405 C.3     1  UNL1        0.0000
   1245 C          -8.8757   32.9904   19.8364 C.3     1  UNL1        0.0000
   1246 C         -20.2514   20.2302   20.3502 C.3     1  UNL1        0.0000
   1247 C         -13.3503   26.5873   19.7377 C.ar    1  UNL1        0.0000
   1248 C         -16.0234   26.8093   20.4966 C.ar    1  UNL1        0.0000
   1249 C          -9.5904   22.5145   25.4583 C.ar    1  UNL1        0.0000
   1250 C         -19.6338   30.7933   14.5135 C.3     1  UNL1        0.0000
   1251 C         -13.9164   16.0218   25.5892 C.ar    1  UNL1        0.0000
   1252 C         -15.3874   37.3031   14.7244 C.2     1  UNL1        0.0000
   1253 N         -16.1056   29.0994   19.7759 N.pl3   1  UNL1        0.0000
   1254 N         -15.5209   36.6974   15.9413 N.2     1  UNL1        0.0000
   1255 N         -10.0585   22.1458   24.2262 N.pl3   1  UNL1        0.0000
   1256 N          -8.1285   31.8691   19.5999 N.3     1  UNL1        0.0000
   1257 N          -8.9191   28.0510   21.0159 N.pl3   1  UNL1        0.0000
   1258 N         -10.9388   18.4653   22.7607 N.pl3   1  UNL1        0.0000
   1259 O          -9.3687   28.4838   18.4412 O.3     1  UNL1        0.0000
   1260 O         -19.9862   24.7899   21.6911 O.2     1  UNL1        0.0000
   1261 O         -12.9144   20.1186   23.3676 O.3     1  UNL1        0.0000
   1262 O         -16.4041   33.1763   16.8086 O.2     1  UNL1        0.0000
   1263 O         -15.0494   32.3278   18.4098 O.2     1  UNL1        0.0000
   1264 O         -14.1626   21.0433   21.7321 O.3     1  UNL1        0.0000
   1265 O          -8.0328   27.5314   16.8900 O.3     1  UNL1        0.0000
   1266 O         -21.1614   25.8838   23.2856 O.2     1  UNL1        0.0000
   1267 O         -10.7041   27.8542   16.0921 O.3     1  UNL1        0.0000
   1268 O         -18.5117   25.4440   23.9776 O.3     1  UNL1        0.0000
   1269 O          -9.2909   29.8705   16.0252 O.3     1  UNL1        0.0000
   1270 O         -20.0002   23.4956   24.1618 O.3     1  UNL1        0.0000
   1271 O         -15.5604   20.3124   23.9845 O.3     1  UNL1        0.0000
   1272 O         -13.7580   33.0439   16.1212 O.3     1  UNL1        0.0000
   1273 O         -14.3238   22.4237   24.2377 O.3     1  UNL1        0.0000
   1274 O         -14.9148   30.8762   15.9634 O.3     1  UNL1        0.0000
   1275 O         -12.0628   28.6975   18.5229 O.3     1  UNL1        0.0000
   1276 O         -17.2865   24.5536   21.5427 O.3     1  UNL1        0.0000
   1277 O         -10.2820   31.0255   18.2983 O.2     1  UNL1        0.0000
   1278 O         -18.9883   22.1675   21.9265 O.2     1  UNL1        0.0000
   1279 O         -13.9027   18.8272   25.6788 O.3     1  UNL1        0.0000
   1280 O         -15.4604   34.4428   14.5312 O.2     1  UNL1        0.0000
   1281 O         -12.1073   21.1504   25.5965 O.3     1  UNL1        0.0000
   1282 O         -17.1533   32.0483   14.4999 O.2     1  UNL1        0.0000
   1283 O         -12.1403   32.2811   18.2711 O.2     1  UNL1        0.0000
   1284 O         -17.0130   21.1004   21.7901 O.2     1  UNL1        0.0000
   1285 O         -13.9289   29.9638   18.5103 O.3     1  UNL1        0.0000
   1286 O         -15.3067   23.4716   21.6977 O.3     1  UNL1        0.0000
   1287 O          -7.2047   28.6498   14.4892 O.3     1  UNL1        0.0000
   1288 O         -22.0417   24.8114   25.6122 O.2     1  UNL1        0.0000
   1289 O          -8.9751   26.3048   14.5672 O.3     1  UNL1        0.0000
   1290 O         -20.1280   27.0472   25.6596 O.2     1  UNL1        0.0000
   1291 O         -12.2296   30.3505   16.2527 O.3     1  UNL1        0.0000
   1292 O         -17.0511   22.9853   23.8586 O.3     1  UNL1        0.0000
   1293 O          -9.8132   28.7802   13.4381 O.3     1  UNL1        0.0000
   1294 O         -14.5896   31.9980   13.3533 O.3     1  UNL1        0.0000
   1295 N         -15.0975   25.4091   27.0321 N.pl3  22  UNL22       0.0000
   1296 N         -14.1704   25.3807   25.0506 N.pl3  22  UNL22       0.0000
   1297 C         -16.0854   25.7319   26.1154 C.2    22  UNL22       0.0000
   1298 C         -15.5018   25.7179   24.8730 C.2    22  UNL22       0.0000
   1299 C         -12.7148   26.6257   23.4637 C.3    22  UNL22       0.0000
   1300 C         -15.2492   25.4003   28.4975 C.3    22  UNL22       0.0000
   1301 C         -13.9456   25.1951   26.3634 C.3    22  UNL22       0.0000
   1302 C         -13.1583   25.2587   23.9772 C.3    22  UNL22       0.0000
   1303 H         -17.1097   25.9222   26.4151 H      22  UNL22       0.0000
   1304 H         -15.9315   25.9171   23.8989 H      22  UNL22       0.0000
   1305 H         -13.5541   27.1753   23.0176 H      22  UNL22       0.0000
   1306 H         -14.7874   26.3020   28.9151 H      22  UNL22       0.0000
   1307 H         -12.2738   27.2339   24.2632 H      22  UNL22       0.0000
   1308 H         -16.3186   25.3966   28.7313 H      22  UNL22       0.0000
   1309 H         -11.9661   26.4863   22.6712 H      22  UNL22       0.0000
   1310 H         -13.6116   24.6484   23.1866 H      22  UNL22       0.0000
   1311 H         -14.7795   24.4978   28.9086 H      22  UNL22       0.0000
   1312 H         -13.0026   24.9043   26.8093 H      22  UNL22       0.0000
   1313 H         -12.3285   24.6777   24.3973 H      22  UNL22       0.0000
   1314 N          -8.5959   33.6789   29.8399 N.3    23  UNL23       0.0000
   1315 C         -10.5595   34.2291   27.9251 C.3    23  UNL23       0.0000
   1316 C          -8.4308   31.0514   29.4141 C.3    23  UNL23       0.0000
   1317 O          -8.4320   35.7640   28.2799 O.2    23  UNL23       0.0000
   1318 O         -10.1319   35.5723   30.1184 O.2    23  UNL23       0.0000
   1319 O          -6.4214   32.4924   30.2643 O.2    23  UNL23       0.0000
   1320 O          -7.1356   32.7920   27.8620 O.2    23  UNL23       0.0000
   1321 F         -11.5197   33.5541   28.6127 F      23  UNL23       0.0000
   1322 F         -11.1507   35.2622   27.2616 F      23  UNL23       0.0000
   1323 F         -10.0330   33.3905   27.0016 F      23  UNL23       0.0000
   1324 F          -7.7130   30.0451   28.8423 F      23  UNL23       0.0000
   1325 F          -8.6448   30.7162   30.7188 F      23  UNL23       0.0000
   1326 F          -9.6330   31.0954   28.7825 F      23  UNL23       0.0000
   1327 S          -9.2919   34.9193   29.1260 S.O2   23  UNL23       0.0000
   1328 S          -7.4773   32.6719   29.2723 S.O2   23  UNL23       0.0000
   1329 TI        -24.9547   17.7204   38.2427 Ti      1  UNL1        0.0000
   1330 TI        -13.8767   20.7832   28.6320 Ti      1  UNL1        0.0000
   1331 TI        -20.4098   14.4057   36.3468 Ti      1  UNL1        0.0000
   1332 TI        -18.4689   24.0969   30.5236 Ti      1  UNL1        0.0000
   1333 TI        -20.1415   24.9854   28.5565 Ti      1  UNL1        0.0000
   1334 TI        -18.9386   13.2410   38.3160 Ti      1  UNL1        0.0000
   1335 TI        -23.5075   16.4201   36.3436 Ti      1  UNL1        0.0000
   1336 TI        -15.5925   21.8269   30.4807 Ti      1  UNL1        0.0000
   1337 H         -18.3069   17.0884   33.8667 H       1  UNL1        0.0000
   1338 H         -21.9925   11.4186   34.1524 H       1  UNL1        0.0000
   1339 H         -16.8430   26.8828   32.7536 H       1  UNL1        0.0000
   1340 H         -24.9422   21.7407   38.0745 H       8  UNL8        0.0000
   1341 H         -14.0506   16.6531   28.9416 H       1  UNL1        0.0000
   1342 H         -28.7076   16.1080   37.8937 H       9  UNL9        0.0000
   1343 H         -10.2042   22.2610   28.8207 H       1  UNL1        0.0000
   1344 H         -18.7072    9.0847   38.0115 H       5  UNL5        0.0000
   1345 H         -24.0451   23.6015   28.8227 H       1  UNL1        0.0000
   1346 H         -17.1676   19.0460   32.7811 H       1  UNL1        0.0000
   1347 H         -21.9208   19.3901   34.1670 H       1  UNL1        0.0000
   1348 H         -25.6588   13.6513   33.9633 H       1  UNL1        0.0000
   1349 H         -19.2759   23.5617   26.6357 H       1  UNL1        0.0000
   1350 H         -14.8968   22.2474   26.8065 H       1  UNL1        0.0000
   1351 H         -21.5352   16.0806   37.9126 H       1  UNL1        0.0000
   1352 H         -17.5371   22.3468   28.9277 H       1  UNL1        0.0000
   1353 H         -18.3010   13.0606   32.8683 H       1  UNL1        0.0000
   1354 H         -20.6401   25.2488   34.0242 H       1  UNL1        0.0000
   1355 H         -27.9833   19.5303   35.8387 H       1  UNL1        0.0000
   1356 H         -11.0404   18.8326   31.1128 H       1  UNL1        0.0000
   1357 H         -25.5202   17.8811   32.7254 H       1  UNL1        0.0000
   1358 H         -23.0699   27.1739   31.0435 H       1  UNL1        0.0000
   1359 H         -21.9661   21.5869   33.2533 H       1  UNL1        0.0000
   1360 H         -20.5527   22.3511   32.5565 H       1  UNL1        0.0000
   1361 H         -20.3063   28.2031   29.3441 H       1  UNL1        0.0000
   1362 H         -14.0867   14.5990   30.1411 H       1  UNL1        0.0000
   1363 H         -14.5089   15.1006   36.7678 H      10  UNL10       0.0000
   1364 H         -15.8602   14.2928   37.5354 H      10  UNL10       0.0000
   1365 H         -11.9847   24.4347   33.1153 H       1  UNL1        0.0000
   1366 H         -13.3563   23.7031   32.3065 H       1  UNL1        0.0000
   1367 H         -13.8572   20.7932   35.3605 H       1  UNL1        0.0000
   1368 H         -14.3528   21.0598   33.6972 H       1  UNL1        0.0000
   1369 H         -14.9426   10.4746   36.3143 H       1  UNL1        0.0000
   1370 H         -16.2784   11.4670   36.8754 H       1  UNL1        0.0000
   1371 C         -13.2047   20.2818   31.4773 C.3     1  UNL1        0.0000
   1372 C         -25.7876   18.0874   35.4237 C.2     1  UNL1        0.0000
   1373 C         -18.0432   12.8222   35.4776 C.3     1  UNL1        0.0000
   1374 C         -20.9286   25.5284   31.3915 C.2     1  UNL1        0.0000
   1375 C         -12.3721   19.7093   32.5456 C.ar    1  UNL1        0.0000
   1376 C         -26.6786   18.6632   34.3793 C.2     1  UNL1        0.0000
   1377 C         -17.1928   12.1662   34.4709 C.ar    1  UNL1        0.0000
   1378 C         -21.7745   26.1521   32.4479 C.2     1  UNL1        0.0000
   1379 C         -12.6726   19.8987   33.9343 C.ar    1  UNL1        0.0000
   1380 C         -26.3929   18.4611   33.0118 C.3     1  UNL1        0.0000
   1381 C         -16.1064   11.3023   34.8317 C.ar    1  UNL1        0.0000
   1382 C         -22.8534   26.9912   32.0923 C.3     1  UNL1        0.0000
   1383 C         -21.4777   25.9006   33.7832 C.3     1  UNL1        0.0000
   1384 C         -17.4681   12.4017   33.1039 C.ar    1  UNL1        0.0000
   1385 C         -11.2339   18.9559   32.1759 C.ar    1  UNL1        0.0000
   1386 C         -27.7909   19.3979   34.7757 C.3     1  UNL1        0.0000
   1387 C         -18.8844   20.3266   32.8682 C.ar    1  UNL1        0.0000
   1388 C         -20.1855   18.1416   34.0637 C.ar    1  UNL1        0.0000
   1389 C         -15.0935   25.6442   32.7738 C.2     1  UNL1        0.0000
   1390 C         -23.7615   12.6239   34.1186 C.2     1  UNL1        0.0000
   1391 C         -13.9381   16.7354   26.8071 C.ar    1  UNL1        0.0000
   1392 C         -20.2031   29.0981   26.8501 C.2     1  UNL1        0.0000
   1393 C         -10.2513   22.1649   26.6810 C.ar    1  UNL1        0.0000
   1394 C         -23.8438   23.6678   26.6700 C.2     1  UNL1        0.0000
   1395 C         -18.1619   21.4058   32.1739 C.3     1  UNL1        0.0000
   1396 C         -20.8825   16.9939   34.7164 C.3     1  UNL1        0.0000
   1397 C         -15.7665   24.6053   31.9857 C.2     1  UNL1        0.0000
   1398 C         -23.1159   13.7151   34.8999 C.2     1  UNL1        0.0000
   1399 C         -13.8845   18.2244   26.8103 C.3     1  UNL1        0.0000
   1400 C         -20.2215   27.6302   26.8041 C.2     1  UNL1        0.0000
   1401 C         -11.5403   21.4558   26.7058 C.3     1  UNL1        0.0000
   1402 C         -22.5456   24.4033   26.7065 C.2     1  UNL1        0.0000
   1403 C         -20.2542   20.4543   33.2686 C.ar    1  UNL1        0.0000
   1404 C         -18.8292   18.0243   33.6908 C.ar    1  UNL1        0.0000
   1405 C         -15.8135   26.8174   33.0972 C.3     1  UNL1        0.0000
   1406 C         -23.0256   11.4837   33.8155 C.3     1  UNL1        0.0000
   1407 C         -14.0284   16.0687   28.0237 C.ar    1  UNL1        0.0000
   1408 C         -24.9675   22.3264   38.9903 C.3    24  UNL24       0.0000
   1409 C          -9.6731   22.5426   27.9147 C.ar    1  UNL1        0.0000
   1410 C         -29.2399   15.8291   38.8015 C.3    25  UNL25       0.0000
   1411 C         -13.7312   25.5106   33.1974 C.3     1  UNL1        0.0000
   1412 C         -25.1069   12.7505   33.7112 C.3     1  UNL1        0.0000
   1413 C         -18.2058   19.1076   33.0987 C.ar    1  UNL1        0.0000
   1414 C         -20.8789   19.3296   33.8576 C.ar    1  UNL1        0.0000
   1415 C         -14.4459   15.0348   38.8193 C.2    10  UNL10       0.0000
   1416 C         -24.4893   23.3136   27.8744 C.3     1  UNL1        0.0000
   1417 C         -18.7719    8.5421   38.9502 C.2     5  UNL5        0.0000
   1418 C         -20.2429   29.8233   28.0854 C.2     1  UNL1        0.0000
   1419 N         -20.9611   21.6197   33.1369 N.pl3   1  UNL1        0.0000
   1420 N         -20.3765   29.2177   29.3023 N.2     1  UNL1        0.0000
   1421 N         -14.9141   14.6660   37.5872 N.pl3  10  UNL10       0.0000
   1422 N         -12.9840   24.3894   32.9609 N.3     1  UNL1        0.0000
   1423 N         -13.7746   20.5712   34.3769 N.pl3   1  UNL1        0.0000
   1424 N         -15.7943   10.9856   36.1217 N.pl3   1  UNL1        0.0000
   1425 O         -14.2243   21.0041   31.8022 O.3     1  UNL1        0.0000
   1426 O         -24.8417   17.3101   35.0521 O.2     1  UNL1        0.0000
   1427 O         -17.7699   12.6389   36.7286 O.3     1  UNL1        0.0000
   1428 O         -21.2596   25.6965   30.1696 O.2     1  UNL1        0.0000
   1429 O         -19.9049   24.8481   31.7708 O.2     1  UNL1        0.0000
   1430 O         -19.0181   13.5635   35.0931 O.3     1  UNL1        0.0000
   1431 O         -12.8883   20.0517   30.2510 O.3     1  UNL1        0.0000
   1432 O         -26.0169   18.4040   36.6466 O.2     1  UNL1        0.0000
   1433 O         -15.5597   20.3745   29.4531 O.3     1  UNL1        0.0000
   1434 O         -23.3672   17.9642   37.3386 O.3     1  UNL1        0.0000
   1435 O         -14.1464   22.3908   29.3862 O.3     1  UNL1        0.0000
   1436 O         -24.8557   16.0159   37.5228 O.3     1  UNL1        0.0000
   1437 O         -20.4159   12.8327   37.3455 O.3     1  UNL1        0.0000
   1438 O         -18.6135   25.5642   29.4822 O.3     1  UNL1        0.0000
   1439 O         -19.1793   14.9439   37.5987 O.3     1  UNL1        0.0000
   1440 O         -19.7703   23.3964   29.3244 O.3     1  UNL1        0.0000
   1441 O         -16.9183   21.2177   31.8839 O.3     1  UNL1        0.0000
   1442 O         -22.1420   17.0738   34.9037 O.3     1  UNL1        0.0000
   1443 O         -15.1375   23.5458   31.6592 O.2     1  UNL1        0.0000
   1444 O         -23.8439   14.6877   35.2875 O.2     1  UNL1        0.0000
   1445 O         -18.7582   11.3474   39.0398 O.3     1  UNL1        0.0000
   1446 O         -20.3160   26.9630   27.8922 O.2     1  UNL1        0.0000
   1447 O         -16.9628   13.6706   38.9575 O.3     1  UNL1        0.0000
   1448 O         -22.0088   24.5685   27.8609 O.2     1  UNL1        0.0000
   1449 O         -16.9958   24.8014   31.6321 O.2     1  UNL1        0.0000
   1450 O         -21.8685   13.6207   35.1511 O.2     1  UNL1        0.0000
   1451 O         -18.7845   22.4841   31.8713 O.3     1  UNL1        0.0000
   1452 O         -20.1622   15.9918   35.0587 O.3     1  UNL1        0.0000
   1453 O         -12.0603   21.1701   27.8502 O.3     1  UNL1        0.0000
   1454 O         -26.8972   17.3316   38.9732 O.3     1  UNL1        0.0000
   1455 O         -13.8307   18.8251   27.9282 O.3     1  UNL1        0.0000
   1456 O         -24.9835   19.5675   39.0206 O.3     1  UNL1        0.0000
   1457 O         -17.0852   22.8708   29.6137 O.3     1  UNL1        0.0000
   1458 O         -21.9067   15.5055   37.2196 O.3     1  UNL1        0.0000
   1459 O         -14.6687   21.3005   26.7991 O.3     1  UNL1        0.0000
   1460 O         -19.4451   24.5183   26.7143 O.3     1  UNL1        0.0000
   1461 N         -19.9531   17.9293   40.3931 N.pl3  26  UNL26       0.0000
   1462 N         -19.0259   17.9010   38.4116 N.pl3  26  UNL26       0.0000
   1463 C         -20.9410   18.2522   39.4764 C.2    26  UNL26       0.0000
   1464 C         -20.3573   18.2382   38.2340 C.2    26  UNL26       0.0000
   1465 C         -17.5704   19.1460   36.8247 C.3    26  UNL26       0.0000
   1466 C         -20.1047   17.9205   41.8585 C.3    26  UNL26       0.0000
   1467 C         -18.8011   17.7154   39.7244 C.3    26  UNL26       0.0000
   1468 C         -18.0138   17.7789   37.3382 C.3    26  UNL26       0.0000
   1469 H         -21.9653   18.4425   39.7761 H      26  UNL26       0.0000
   1470 H         -20.7870   18.4374   37.2599 H      26  UNL26       0.0000
   1471 H         -18.4096   19.6955   36.3786 H      26  UNL26       0.0000
   1472 H         -19.6430   18.8222   42.2761 H      26  UNL26       0.0000
   1473 H         -17.1294   19.7541   37.6242 H      26  UNL26       0.0000
   1474 H         -21.1742   17.9168   42.0923 H      26  UNL26       0.0000
   1475 H         -16.8216   19.0066   36.0322 H      26  UNL26       0.0000
   1476 H         -18.4672   17.1687   36.5476 H      26  UNL26       0.0000
   1477 H         -19.6350   17.0181   42.2696 H      26  UNL26       0.0000
   1478 H         -17.8581   17.4246   40.1703 H      26  UNL26       0.0000
   1479 H         -17.1840   17.1980   37.7583 H      26  UNL26       0.0000
   1480 N         -13.4514   26.1991   43.2009 N.3    27  UNL27       0.0000
   1481 C         -15.4150   26.7493   41.2861 C.3    27  UNL27       0.0000
   1482 C         -13.2863   23.5717   42.7751 C.3    27  UNL27       0.0000
   1483 O         -13.2876   28.2843   41.6409 O.2    27  UNL27       0.0000
   1484 O         -14.9874   28.0926   43.4794 O.2    27  UNL27       0.0000
   1485 O         -11.2770   25.0127   43.6253 O.2    27  UNL27       0.0000
   1486 O         -11.9911   25.3122   41.2230 O.2    27  UNL27       0.0000
   1487 F         -16.3753   26.0744   41.9737 F      27  UNL27       0.0000
   1488 F         -16.0062   27.7825   40.6226 F      27  UNL27       0.0000
   1489 F         -14.8885   25.9108   40.3626 F      27  UNL27       0.0000
   1490 F         -12.5686   22.5653   42.2033 F      27  UNL27       0.0000
   1491 F         -13.5003   23.2365   44.0798 F      27  UNL27       0.0000
   1492 F         -14.4886   23.6157   42.1435 F      27  UNL27       0.0000
   1493 S         -14.1474   27.4395   42.4870 S.O2   27  UNL27       0.0000
   1494 S         -12.3329   25.1921   42.6333 S.O2   27  UNL27       0.0000
   1495 TI         13.0339    2.2829   11.6292 Ti      1  UNL1        0.0000
   1496 TI         24.1118    5.3457    2.0185 Ti      1  UNL1        0.0000
   1497 TI         17.5787   -1.0318    9.7333 Ti      1  UNL1        0.0000
   1498 TI         19.5196    8.6594    3.9101 Ti      1  UNL1        0.0000
   1499 TI         17.8470    9.5479    1.9430 Ti      1  UNL1        0.0000
   1500 TI         19.0500   -2.1965   11.7025 Ti      1  UNL1        0.0000
   1501 TI         14.4811    0.9826    9.7301 Ti      1  UNL1        0.0000
   1502 TI         22.3960    6.3894    3.8672 Ti      1  UNL1        0.0000
   1503 H          19.6816    1.6509    7.2532 H       1  UNL1        0.0000
   1504 H          15.9961   -4.0189    7.5389 H       1  UNL1        0.0000
   1505 H          21.1455   11.4453    6.1401 H       1  UNL1        0.0000
   1506 H          13.0463    6.3032   11.4610 H       1  UNL1        0.0000
   1507 H          23.9379    1.2156    2.3281 H       1  UNL1        0.0000
   1508 H           9.2809    0.6705   11.2803 H       1  UNL1        0.0000
   1509 H          27.7844    6.8235    2.2073 H       1  UNL1        0.0000
   1510 H          19.2813   -6.3528   11.3980 H       1  UNL1        0.0000
   1511 H          13.9434    8.1640    2.2092 H       1  UNL1        0.0000
   1512 H          20.8209    3.6085    6.1676 H       1  UNL1        0.0000
   1513 H          16.0677    3.9526    7.5536 H       1  UNL1        0.0000
   1514 H          12.3297   -1.7862    7.3499 H       1  UNL1        0.0000
   1515 H          18.7127    8.1242    0.0222 H       1  UNL1        0.0000
   1516 H          23.0918    6.8099    0.1930 H       1  UNL1        0.0000
   1517 H          16.4533    0.6431   11.2991 H       1  UNL1        0.0000
   1518 H          20.4515    6.9094    2.3142 H       1  UNL1        0.0000
   1519 H          19.6875   -2.3769    6.2548 H       1  UNL1        0.0000
   1520 H          17.3485    9.8113    7.4107 H       1  UNL1        0.0000
   1521 H          10.0052    4.0928    9.2252 H       1  UNL1        0.0000
   1522 H          26.9481    3.3951    4.4993 H       1  UNL1        0.0000
   1523 H          12.4684    2.4436    6.1119 H       1  UNL1        0.0000
   1524 H          14.9187   11.7364    4.4300 H       1  UNL1        0.0000
   1525 H          16.0225    6.1494    6.6399 H       1  UNL1        0.0000
   1526 H          17.4358    6.9136    5.9430 H       1  UNL1        0.0000
   1527 H          17.6822   12.7656    2.7307 H       1  UNL1        0.0000
   1528 H          23.9018   -0.8385    3.5277 H      40  UNL40       0.0000
   1529 H          23.4796   -0.3369   10.1543 H       1  UNL1        0.0000
   1530 H          22.1284   -1.1447   10.9219 H       1  UNL1        0.0000
   1531 H          26.0039    8.9972    6.5018 H       1  UNL1        0.0000
   1532 H          24.6322    8.2656    5.6930 H       1  UNL1        0.0000
   1533 H          24.1313    5.3558    8.7470 H       1  UNL1        0.0000
   1534 H          23.6357    5.6223    7.0837 H       1  UNL1        0.0000
   1535 H          23.0460   -4.9629    9.7009 H       1  UNL1        0.0000
   1536 H          21.7102   -3.9705   10.2619 H       1  UNL1        0.0000
   1537 C          24.7839    4.8443    4.8639 C.3     1  UNL1        0.0000
   1538 C          12.2010    2.6499    8.8102 C.3     1  UNL1        0.0000
   1539 C          19.9453   -2.6153    8.8641 C.2     1  UNL1        0.0000
   1540 C          17.0599   10.0909    4.7780 C.3     1  UNL1        0.0000
   1541 C          25.6164    4.2718    5.9322 C.ar    1  UNL1        0.0000
   1542 C          11.3099    3.2257    7.7659 C.ar    1  UNL1        0.0000
   1543 C          20.7958   -3.2713    7.8575 C.2     1  UNL1        0.0000
   1544 C          16.2141   10.7147    5.8344 C.ar    1  UNL1        0.0000
   1545 C          25.3159    4.4612    7.3208 C.ar    1  UNL1        0.0000
   1546 C          11.5957    3.0236    6.3983 C.ar    1  UNL1        0.0000
   1547 C          21.8822   -4.1352    8.2183 C.3     1  UNL1        0.0000
   1548 C          15.1352   11.5537    5.4788 C.ar    1  UNL1        0.0000
   1549 C          16.5108   10.4631    7.1697 C.ar    1  UNL1        0.0000
   1550 C          20.5204   -3.0358    6.4904 C.3     1  UNL1        0.0000
   1551 C          26.7546    3.5184    5.5624 C.ar    1  UNL1        0.0000
   1552 C          10.1977    3.9604    8.1623 C.ar    1  UNL1        0.0000
   1553 C          19.1041    4.8891    6.2548 C.ar    1  UNL1        0.0000
   1554 C          17.8030    2.7041    7.4502 C.ar    1  UNL1        0.0000
   1555 C          22.8951   10.2067    6.1603 C.ar    1  UNL1        0.0000
   1556 C          14.2271   -2.8136    7.5051 C.2     1  UNL1        0.0000
   1557 C          24.0504    1.2979    0.1936 C.2     1  UNL1        0.0000
   1558 C          17.7854   13.6606    0.2367 C.2     1  UNL1        0.0000
   1559 C          27.7372    6.7274    0.0675 C.2     1  UNL1        0.0000
   1560 C          14.1447    8.2303    0.0565 C.2     1  UNL1        0.0000
   1561 C          19.8266    5.9683    5.5604 C.3     1  UNL1        0.0000
   1562 C          17.1061    1.5564    8.1029 C.3     1  UNL1        0.0000
   1563 C          22.2221    9.1678    5.3722 C.3     1  UNL1        0.0000
   1564 C          14.8727   -1.7224    8.2864 C.2     1  UNL1        0.0000
   1565 C          24.1040    2.7869    0.1968 C.2     1  UNL1        0.0000
   1566 C          17.7670   12.1927    0.1906 C.2     1  UNL1        0.0000
   1567 C          26.4482    6.0183    0.0923 C.2     1  UNL1        0.0000
   1568 C          15.4430    8.9658    0.0931 C.2     1  UNL1        0.0000
   1569 C          17.7343    5.0168    6.6551 C.ar    1  UNL1        0.0000
   1570 C          19.1594    2.5868    7.0774 C.ar    1  UNL1        0.0000
   1571 C          22.1751   11.3799    6.4837 C.ar    1  UNL1        0.0000
   1572 C          14.9630   -3.9537    7.2020 C.3     1  UNL1        0.0000
   1573 C          23.9601    0.6312    1.4102 C.3     1  UNL1        0.0000
   1574 C          13.0210    6.8889   12.3769 C.ar    1  UNL1        0.0000
   1575 C          28.3154    7.1051    1.3012 C.2     1  UNL1        0.0000
   1576 C           8.7486    0.3916   12.1880 C.ar    1  UNL1        0.0000
   1577 C          24.2574   10.0731    6.5839 C.ar    1  UNL1        0.0000
   1578 C          12.8816   -2.6870    7.0978 C.3     1  UNL1        0.0000
   1579 C          19.7828    3.6701    6.4853 C.ar    1  UNL1        0.0000
   1580 C          17.1096    3.8921    7.2441 C.ar    1  UNL1        0.0000
   1581 C          23.5426   -0.4027   12.2058 C.ar    1  UNL1        0.0000
   1582 C          13.4992    7.8761    1.2610 C.2     1  UNL1        0.0000
   1583 C          19.2166   -6.8954   12.3367 C.3     1  UNL1        0.0000
   1584 C          17.7456   14.3858    1.4719 C.2     1  UNL1        0.0000
   1585 N          17.0274    6.1822    6.5234 N.pl3   1  UNL1        0.0000
   1586 N          17.6121   13.7802    2.6888 N.pl3   1  UNL1        0.0000
   1587 N          23.0745   -0.7715   10.9738 N.pl3   1  UNL1        0.0000
   1588 N          25.0045    8.9519    6.3474 N.pl3   1  UNL1        0.0000
   1589 N          24.2140    5.1337    7.7634 N.pl3   1  UNL1        0.0000
   1590 N          22.1942   -4.4519    9.5082 N.3     1  UNL1        0.0000
   1591 O          23.7643    5.5666    5.1888 O.3     1  UNL1        0.0000
   1592 O          13.1468    1.8726    8.4386 O.3     1  UNL1        0.0000
   1593 O          20.2186   -2.7986   10.1151 O.2     1  UNL1        0.0000
   1594 O          16.7290   10.2590    3.5561 O.3     1  UNL1        0.0000
   1595 O          18.0836    9.4106    5.1574 O.3     1  UNL1        0.0000
   1596 O          18.9704   -1.8740    8.4796 O.2     1  UNL1        0.0000
   1597 O          25.1002    4.6142    3.6375 O.3     1  UNL1        0.0000
   1598 O          11.9717    2.9665   10.0331 O.3     1  UNL1        0.0000
   1599 O          22.4289    4.9370    2.8396 O.3     1  UNL1        0.0000
   1600 O          14.6213    2.5267   10.7251 O.3     1  UNL1        0.0000
   1601 O          23.8422    6.9533    2.7727 O.3     1  UNL1        0.0000
   1602 O          13.1328    0.5784   10.9093 O.3     1  UNL1        0.0000
   1603 O          17.5727   -2.6048   10.7321 O.3     1  UNL1        0.0000
   1604 O          19.3750   10.1267    2.8688 O.3     1  UNL1        0.0000
   1605 O          18.8092   -0.4936   10.9852 O.3     1  UNL1        0.0000
   1606 O          18.2182    7.9589    2.7109 O.3     1  UNL1        0.0000
   1607 O          21.0702    5.7802    5.2705 O.3     1  UNL1        0.0000
   1608 O          15.8466    1.6363    8.2902 O.3     1  UNL1        0.0000
   1609 O          22.8511    8.1083    5.0458 O.3     1  UNL1        0.0000
   1610 O          14.1447   -0.7498    8.6740 O.2     1  UNL1        0.0000
   1611 O          19.2304   -4.0900   12.4264 O.2     1  UNL1        0.0000
   1612 O          17.6726   11.5255    1.2788 O.2     1  UNL1        0.0000
   1613 O          21.0257   -1.7669   12.3440 O.3     1  UNL1        0.0000
   1614 O          15.9798    9.1310    1.2474 O.2     1  UNL1        0.0000
   1615 O          20.9928    9.3639    5.0186 O.3     1  UNL1        0.0000
   1616 O          16.1200   -1.8168    8.5376 O.2     1  UNL1        0.0000
   1617 O          19.2041    7.0466    5.2579 O.3     1  UNL1        0.0000
   1618 O          17.8263    0.5543    8.4452 O.3     1  UNL1        0.0000
   1619 O          25.9283    5.7326    1.2368 O.2     1  UNL1        0.0000
   1620 O          11.0913    1.8941   12.3597 O.3     1  UNL1        0.0000
   1621 O          24.1579    3.3876    1.3147 O.2     1  UNL1        0.0000
   1622 O          13.0050    4.1300   12.4071 O.3     1  UNL1        0.0000
   1623 O          20.9034    7.4333    3.0002 O.3     1  UNL1        0.0000
   1624 O          16.0819    0.0680   10.6061 O.3     1  UNL1        0.0000
   1625 O          23.3198    5.8630    0.1856 O.3     1  UNL1        0.0000
   1626 O          18.5434    9.0808    0.1008 O.3     1  UNL1        0.0000
   1627 N          18.0355    2.4918   13.7796 N.pl3  29  UNL29       0.0000
   1628 N          18.9626    2.4635   11.7981 N.pl3  29  UNL29       0.0000
   1629 C          17.0476    2.8147   12.8630 C.2    29  UNL29       0.0000
   1630 C          17.6312    2.8007   11.6205 C.2    29  UNL29       0.0000
   1631 C          20.4182    3.7085   10.2112 C.3    29  UNL29       0.0000
   1632 C          17.8839    2.4830   15.2451 C.3    29  UNL29       0.0000
   1633 C          19.1875    2.2779   13.1109 C.3    29  UNL29       0.0000
   1634 C          19.9747    2.3414   10.7247 C.3    29  UNL29       0.0000
   1635 H          16.0233    3.0050   13.1627 H      29  UNL29       0.0000
   1636 H          17.2015    2.9999   10.6464 H      29  UNL29       0.0000
   1637 H          19.5789    4.2580    9.7651 H      29  UNL29       0.0000
   1638 H          18.3456    3.3847   15.6626 H      29  UNL29       0.0000
   1639 H          20.8592    4.3167   11.0107 H      29  UNL29       0.0000
   1640 H          16.8144    2.4793   15.4788 H      29  UNL29       0.0000
   1641 H          21.1669    3.5691    9.4187 H      29  UNL29       0.0000
   1642 H          19.5214    1.7312    9.9342 H      29  UNL29       0.0000
   1643 H          18.3535    1.5806   15.6561 H      29  UNL29       0.0000
   1644 H          20.1304    1.9871   13.5569 H      29  UNL29       0.0000
   1645 H          20.8045    1.7605   11.1449 H      29  UNL29       0.0000
   1646 N          24.5372   10.7616   16.5874 N.3    30  UNL30       0.0000
   1647 C          22.5736   11.3118   14.6726 C.3    30  UNL30       0.0000
   1648 C          24.7022    8.1342   16.1616 C.3    30  UNL30       0.0000
   1649 O          24.7010   12.8468   15.0274 O.2    30  UNL30       0.0000
   1650 O          23.0011   12.6551   16.8659 O.2    30  UNL30       0.0000
   1651 O          26.7116    9.5752   17.0118 O.2    30  UNL30       0.0000
   1652 O          25.9974    9.8747   14.6095 O.2    30  UNL30       0.0000
   1653 F          21.6133   10.6369   15.3602 F      30  UNL30       0.0000
   1654 F          21.9823   12.3450   14.0092 F      30  UNL30       0.0000
   1655 F          23.1000   10.4733   13.7491 F      30  UNL30       0.0000
   1656 F          25.4200    7.1278   15.5898 F      30  UNL30       0.0000
   1657 F          24.4883    7.7990   17.4664 F      30  UNL30       0.0000
   1658 F          23.5000    8.1782   15.5301 F      30  UNL30       0.0000
   1659 S          23.8411   12.0020   15.8735 S.O2   30  UNL30       0.0000
   1660 S          25.6557    9.7546   16.0198 S.O2   30  UNL30       0.0000
   1661 TI          8.1783   -5.1968   24.9902 Ti      1  UNL1        0.0000
   1662 TI         19.2563   -2.1340   15.3795 Ti      1  UNL1        0.0000
   1663 TI         12.7232   -8.5116   23.0943 Ti      1  UNL1        0.0000
   1664 TI         14.6641    1.1797   17.2711 Ti      1  UNL1        0.0000
   1665 TI         12.9915    2.0681   15.3040 Ti      1  UNL1        0.0000
   1666 TI         14.1944   -9.6763   25.0635 Ti      1  UNL1        0.0000
   1667 TI          9.6255   -6.4971   23.0911 Ti      1  UNL1        0.0000
   1668 TI         17.5405   -1.0903   17.2282 Ti      1  UNL1        0.0000
   1669 H          14.8261   -5.8288   20.6142 H       1  UNL1        0.0000
   1670 H          11.1405  -11.4987   20.8999 H       1  UNL1        0.0000
   1671 H          16.2900    3.9655   19.5011 H       1  UNL1        0.0000
   1672 H           8.1908   -1.1765   24.8220 H       1  UNL1        0.0000
   1673 H          19.0824   -6.2641   15.6891 H       1  UNL1        0.0000
   1674 H           4.4254   -6.8092   24.6413 H       1  UNL1        0.0000
   1675 H          22.9288   -0.6563   15.5683 H       1  UNL1        0.0000
   1676 H          14.4258  -13.8325   24.7590 H       1  UNL1        0.0000
   1677 H           9.0879    0.6843   15.5702 H       1  UNL1        0.0000
   1678 H          15.9654   -3.8713   19.5286 H       1  UNL1        0.0000
   1679 H          11.2122   -3.5271   20.9146 H       1  UNL1        0.0000
   1680 H           7.4742   -9.2659   20.7109 H       1  UNL1        0.0000
   1681 H          13.8571    0.6445   13.3832 H       1  UNL1        0.0000
   1682 H          18.2363   -0.6699   13.5540 H       1  UNL1        0.0000
   1683 H          11.5978   -6.8366   24.6601 H       1  UNL1        0.0000
   1684 H          15.5960   -0.5704   15.6752 H       1  UNL1        0.0000
   1685 H          14.8320   -9.8566   19.6158 H       1  UNL1        0.0000
   1686 H          12.4929    2.3316   20.7717 H       1  UNL1        0.0000
   1687 H           5.1497   -3.3870   22.5862 H       1  UNL1        0.0000
   1688 H          22.0926   -4.0846   17.8603 H       1  UNL1        0.0000
   1689 H           7.6129   -5.0361   19.4729 H       1  UNL1        0.0000
   1690 H          10.0632    4.2567   17.7910 H       1  UNL1        0.0000
   1691 H          11.1670   -1.3303   20.0009 H       1  UNL1        0.0000
   1692 H          12.5803   -0.5662   19.3040 H       1  UNL1        0.0000
   1693 H          12.8267    5.2858   16.0917 H       1  UNL1        0.0000
   1694 H          19.0463   -8.3183   16.8887 H      40  UNL40       0.0000
   1695 H          18.6241   -7.8167   23.5153 H       1  UNL1        0.0000
   1696 H          17.2729   -8.6245   24.2829 H       1  UNL1        0.0000
   1697 H          21.1483    1.5175   19.8628 H       1  UNL1        0.0000
   1698 H          19.7767    0.7858   19.0540 H       1  UNL1        0.0000
   1699 H          19.2758   -2.1240   22.1080 H       1  UNL1        0.0000
   1700 H          18.7802   -1.8575   20.4447 H       1  UNL1        0.0000
   1701 H          18.1904  -12.4426   23.0619 H       1  UNL1        0.0000
   1702 H          16.8546  -11.4502   23.6229 H       1  UNL1        0.0000
   1703 C          19.9283   -2.6355   18.2249 C.3     1  UNL1        0.0000
   1704 C           7.3455   -4.8298   22.1712 C.3     1  UNL1        0.0000
   1705 C          15.0898  -10.0950   22.2251 C.2     1  UNL1        0.0000
   1706 C          12.2044    2.6111   18.1390 C.3     1  UNL1        0.0000
   1707 C          20.7609   -3.2079   19.2932 C.ar    1  UNL1        0.0000
   1708 C           6.4544   -4.2540   21.1269 C.ar    1  UNL1        0.0000
   1709 C          15.9403  -10.7511   21.2185 C.2     1  UNL1        0.0000
   1710 C          11.3585    3.2349   19.1954 C.ar    1  UNL1        0.0000
   1711 C          20.4604   -3.0185   20.6818 C.ar    1  UNL1        0.0000
   1712 C           6.7401   -4.4562   19.7593 C.ar    1  UNL1        0.0000
   1713 C          17.0267  -11.6149   21.5793 C.3     1  UNL1        0.0000
   1714 C          10.2796    4.0740   18.8398 C.ar    1  UNL1        0.0000
   1715 C          11.6553    2.9833   20.5307 C.ar    1  UNL1        0.0000
   1716 C          15.6649  -10.5156   19.8514 C.3     1  UNL1        0.0000
   1717 C          21.8991   -3.9613   18.9234 C.ar    1  UNL1        0.0000
   1718 C           5.3421   -3.5194   21.5233 C.ar    1  UNL1        0.0000
   1719 C          14.2486   -2.5907   19.6158 C.ar    1  UNL1        0.0000
   1720 C          12.9475   -4.7756   20.8112 C.ar    1  UNL1        0.0000
   1721 C          18.0396    2.7269   19.5213 C.ar    1  UNL1        0.0000
   1722 C           9.3715  -10.2934   20.8661 C.2     1  UNL1        0.0000
   1723 C          19.1949   -6.1818   13.5546 C.2     1  UNL1        0.0000
   1724 C          12.9299    6.1808   13.5977 C.ar    1  UNL1        0.0000
   1725 C          22.8817   -0.7523   13.4285 C.ar    1  UNL1        0.0000
   1726 C           9.2892    0.7506   13.4175 C.ar    1  UNL1        0.0000
   1727 C          14.9711   -1.5114   18.9214 C.3     1  UNL1        0.0000
   1728 C          12.2506   -5.9233   21.4639 C.3     1  UNL1        0.0000
   1729 C          17.3665    1.6881   18.7332 C.3     1  UNL1        0.0000
   1730 C          10.0172   -9.2021   21.6474 C.2     1  UNL1        0.0000
   1731 C          19.2485   -4.6928   13.5578 C.2     1  UNL1        0.0000
   1732 C          12.9115    4.7130   13.5516 C.3     1  UNL1        0.0000
   1733 C          21.5927   -1.4614   13.4533 C.3     1  UNL1        0.0000
   1734 C          10.5874    1.4861   13.4541 C.3     1  UNL1        0.0000
   1735 C          12.8788   -2.4629   20.0161 C.ar    1  UNL1        0.0000
   1736 C          14.3039   -4.8930   20.4384 C.ar    1  UNL1        0.0000
   1737 C          17.3195    3.9002   19.8447 C.ar    1  UNL1        0.0000
   1738 C          10.1075  -11.4335   20.5630 C.3     1  UNL1        0.0000
   1739 C          19.1046   -6.8485   14.7712 C.3     1  UNL1        0.0000
   1740 C           8.1655   -0.5909   25.7379 C.ar    1  UNL1        0.0000
   1741 C          23.4599   -0.3746   14.6622 C.ar    1  UNL1        0.0000
   1742 C           3.8931   -7.0881   25.5490 C.ar    1  UNL1        0.0000
   1743 C          19.4018    2.5934   19.9449 C.ar    1  UNL1        0.0000
   1744 C           8.0261  -10.1668   20.4588 C.3     1  UNL1        0.0000
   1745 C          14.9272   -3.8096   19.8463 C.ar    1  UNL1        0.0000
   1746 C          12.2541   -3.5876   20.6051 C.ar    1  UNL1        0.0000
   1747 C          18.6871   -7.8825   25.5668 C.ar    1  UNL1        0.0000
   1748 C           8.6437    0.3963   14.6220 C.ar    1  UNL1        0.0000
   1749 C          14.3611  -14.3752   25.6977 C.3     1  UNL1        0.0000
   1750 C          12.8901    6.9061   14.8329 C.ar    1  UNL1        0.0000
   1751 N          12.1719   -1.2976   19.8844 N.pl3   1  UNL1        0.0000
   1752 N          12.7566    6.3004   16.0498 N.pl3   1  UNL1        0.0000
   1753 N          18.2190   -8.2512   24.3348 N.pl3   1  UNL1        0.0000
   1754 N          20.1490    1.4721   19.7084 N.pl3   1  UNL1        0.0000
   1755 N          19.3584   -2.3460   21.1244 N.pl3   1  UNL1        0.0000
   1756 N          17.3387  -11.9317   22.8692 N.3     1  UNL1        0.0000
   1757 O          18.9087   -1.9132   18.5498 O.3     1  UNL1        0.0000
   1758 O           8.2913   -5.6071   21.7996 O.3     1  UNL1        0.0000
   1759 O          15.3631  -10.2784   23.4761 O.2     1  UNL1        0.0000
   1760 O          11.8734    2.7793   16.9171 O.3     1  UNL1        0.0000
   1761 O          13.2281    1.9309   18.5184 O.3     1  UNL1        0.0000
   1762 O          14.1149   -9.3537   21.8406 O.2     1  UNL1        0.0000
   1763 O          20.2447   -2.8655   16.9985 O.3     1  UNL1        0.0000
   1764 O           7.1161   -4.5132   23.3941 O.3     1  UNL1        0.0000
   1765 O          17.5734   -2.5428   16.2006 O.3     1  UNL1        0.0000
   1766 O           9.7658   -4.9530   24.0861 O.3     1  UNL1        0.0000
   1767 O          18.9866   -0.5264   16.1337 O.3     1  UNL1        0.0000
   1768 O           8.2773   -6.9014   24.2703 O.3     1  UNL1        0.0000
   1769 O          12.7171  -10.0845   24.0931 O.3     1  UNL1        0.0000
   1770 O          14.5195    2.6469   16.2298 O.3     1  UNL1        0.0000
   1771 O          13.9537   -7.9733   24.3462 O.3     1  UNL1        0.0000
   1772 O          13.3627    0.4792   16.0719 O.3     1  UNL1        0.0000
   1773 O          16.2147   -1.6995   18.6315 O.3     1  UNL1        0.0000
   1774 O          10.9910   -5.8434   21.6512 O.3     1  UNL1        0.0000
   1775 O          17.9955    0.6285   18.4068 O.3     1  UNL1        0.0000
   1776 O           9.2892   -8.2295   22.0350 O.2     1  UNL1        0.0000
   1777 O          14.3748  -11.5698   25.7874 O.2     1  UNL1        0.0000
   1778 O          12.8171    4.0458   14.6398 O.3     1  UNL1        0.0000
   1779 O          16.1702   -9.2466   25.7050 O.3     1  UNL1        0.0000
   1780 O          11.1242    1.6513   14.6084 O.3     1  UNL1        0.0000
   1781 O          16.1372    1.8841   18.3796 O.3     1  UNL1        0.0000
   1782 O          11.2645   -9.2966   21.8986 O.2     1  UNL1        0.0000
   1783 O          14.3486   -0.4331   18.6189 O.3     1  UNL1        0.0000
   1784 O          12.9708   -6.9254   21.8062 O.3     1  UNL1        0.0000
   1785 O          21.0727   -1.7472   14.5978 O.3     1  UNL1        0.0000
   1786 O           6.2358   -5.5856   25.7207 O.3     1  UNL1        0.0000
   1787 O          19.3024   -4.0922   14.6757 O.2     1  UNL1        0.0000
   1788 O           8.1495   -3.3498   25.7681 O.3     1  UNL1        0.0000
   1789 O          16.0479   -0.0465   16.3612 O.3     1  UNL1        0.0000
   1790 O          11.2264   -7.4117   23.9671 O.3     1  UNL1        0.0000
   1791 O          18.4643   -1.6168   13.5466 O.3     1  UNL1        0.0000
   1792 O          13.6879    1.6010   13.4618 O.3     1  UNL1        0.0000
   1793 N          13.1800   -4.9879   27.1406 N.pl3  32  UNL32       0.0000
   1794 N          14.1071   -5.0163   25.1591 N.pl3  32  UNL32       0.0000
   1795 C          12.1921   -4.6650   26.2240 C.2    32  UNL32       0.0000
   1796 C          12.7757   -4.6791   24.9815 C.2    32  UNL32       0.0000
   1797 C          15.5627   -3.7713   23.5722 C.3    32  UNL32       0.0000
   1798 C          13.0283   -4.9967   28.6061 C.3    32  UNL32       0.0000
   1799 C          14.3319   -5.2019   26.4719 C.3    32  UNL32       0.0000
   1800 C          15.1192   -5.1383   24.0857 C.3    32  UNL32       0.0000
   1801 H          11.1678   -4.4747   26.5237 H      32  UNL32       0.0000
   1802 H          12.3460   -4.4799   24.0074 H      32  UNL32       0.0000
   1803 H          14.7234   -3.2217   23.1261 H      32  UNL32       0.0000
   1804 H          13.4900   -4.0950   29.0236 H      32  UNL32       0.0000
   1805 H          16.0037   -3.1631   24.3717 H      32  UNL32       0.0000
   1806 H          11.9588   -5.0004   28.8398 H      32  UNL32       0.0000
   1807 H          16.3114   -3.9107   22.7797 H      32  UNL32       0.0000
   1808 H          14.6659   -5.7485   23.2952 H      32  UNL32       0.0000
   1809 H          13.4980   -5.8992   29.0171 H      32  UNL32       0.0000
   1810 H          15.2749   -5.4926   26.9179 H      32  UNL32       0.0000
   1811 H          15.9490   -5.7193   24.5059 H      32  UNL32       0.0000
   1812 N          19.6816    3.2819   29.9484 N.3    33  UNL33       0.0000
   1813 C          17.7180    3.8321   28.0336 C.3    33  UNL33       0.0000
   1814 C          19.8467    0.6545   29.5226 C.3    33  UNL33       0.0000
   1815 O          19.8455    5.3670   28.3884 O.2    33  UNL33       0.0000
   1816 O          18.1456    5.1753   30.2269 O.2    33  UNL33       0.0000
   1817 O          21.8560    2.0955   30.3728 O.2    33  UNL33       0.0000
   1818 O          21.1419    2.3950   27.9705 O.2    33  UNL33       0.0000
   1819 F          16.7577    3.1572   28.7212 F      33  UNL33       0.0000
   1820 F          17.1268    4.8653   27.3702 F      33  UNL33       0.0000
   1821 F          18.2445    2.9935   27.1101 F      33  UNL33       0.0000
   1822 F          20.5644   -0.3519   28.9508 F      33  UNL33       0.0000
   1823 F          19.6327    0.3192   30.8274 F      33  UNL33       0.0000
   1824 F          18.6445    0.6984   28.8911 F      33  UNL33       0.0000
   1825 S          18.9856    4.5223   29.2345 S.O2   33  UNL33       0.0000
   1826 S          20.8002    2.2749   29.3808 S.O2   33  UNL33       0.0000
   1827 TI          3.3228  -12.6765   38.3512 Ti      1  UNL1        0.0000
   1828 TI         14.4008   -9.6138   28.7405 Ti      1  UNL1        0.0000
   1829 TI          7.8677  -15.9913   36.4553 Ti      1  UNL1        0.0000
   1830 TI          9.8086   -6.3000   30.6321 Ti      1  UNL1        0.0000
   1831 TI          8.1359   -5.4116   28.6650 Ti      1  UNL1        0.0000
   1832 TI          9.3389  -17.1560   38.4245 Ti      1  UNL1        0.0000
   1833 TI          4.7700  -13.9769   36.4521 Ti      1  UNL1        0.0000
   1834 TI         12.6849   -8.5701   30.5892 Ti      1  UNL1        0.0000
   1835 H           9.9706  -13.3085   33.9752 H       1  UNL1        0.0000
   1836 H           6.2850  -18.9784   34.2609 H       1  UNL1        0.0000
   1837 H          11.4345   -3.5142   32.8621 H       1  UNL1        0.0000
   1838 H           3.3353   -8.6563   38.1830 H      11  UNL11       0.0000
   1839 H          14.2269  -13.7439   29.0501 H       1  UNL1        0.0000
   1840 H          -0.4301  -14.2890   38.0023 H       3  UNL3        0.0000
   1841 H          18.0733   -8.1360   28.9293 H       1  UNL1        0.0000
   1842 H           9.5703  -21.3122   38.1200 H      13  UNL13       0.0000
   1843 H           4.2324   -6.7955   28.9312 H       1  UNL1        0.0000
   1844 H          11.1099  -11.3510   32.8896 H       1  UNL1        0.0000
   1845 H           6.3567  -11.0068   34.2756 H       1  UNL1        0.0000
   1846 H           2.6187  -16.7457   34.0719 H       1  UNL1        0.0000
   1847 H           9.0016   -6.8352   26.7442 H       1  UNL1        0.0000
   1848 H          13.3807   -8.1496   26.9150 H       1  UNL1        0.0000
   1849 H           6.7423  -14.3163   38.0211 H       1  UNL1        0.0000
   1850 H          10.7404   -8.0501   29.0362 H       1  UNL1        0.0000
   1851 H           9.9765  -17.3364   32.9768 H       1  UNL1        0.0000
   1852 H           7.6374   -5.1482   34.1327 H       1  UNL1        0.0000
   1853 H           0.2941  -10.8667   35.9472 H       1  UNL1        0.0000
   1854 H          17.2371  -11.5644   31.2213 H       1  UNL1        0.0000
   1855 H           2.7573  -12.5158   32.8339 H       1  UNL1        0.0000
   1856 H           5.2076   -3.2230   31.1520 H       1  UNL1        0.0000
   1857 H           6.3114   -8.8101   33.3619 H       1  UNL1        0.0000
   1858 H           7.7248   -8.0459   32.6650 H       1  UNL1        0.0000
   1859 H           7.9712   -2.1939   29.4527 H       1  UNL1        0.0000
   1860 H          14.1908  -15.7980   30.2497 H      40  UNL40       0.0000
   1861 H          13.7686  -15.2964   36.8763 H      12  UNL12       0.0000
   1862 H          12.4173  -16.1042   37.6439 H      12  UNL12       0.0000
   1863 H          16.2928   -5.9623   33.2238 H       1  UNL1        0.0000
   1864 H          14.9212   -6.6939   32.4150 H       1  UNL1        0.0000
   1865 H          14.4203   -9.6037   35.4690 H       1  UNL1        0.0000
   1866 H          13.9247   -9.3372   33.8057 H       1  UNL1        0.0000
   1867 H          13.3349  -19.9224   36.4229 H       1  UNL1        0.0000
   1868 H          11.9991  -18.9300   36.9839 H       1  UNL1        0.0000
   1869 C          15.0728  -10.1152   31.5859 C.3     1  UNL1        0.0000
   1870 C           2.4899  -12.3096   35.5322 C.3     1  UNL1        0.0000
   1871 C          10.2343  -17.5748   35.5861 C.2     1  UNL1        0.0000
   1872 C           7.3489   -4.8686   31.5000 C.3     1  UNL1        0.0000
   1873 C          15.9054  -10.6877   32.6542 C.ar    1  UNL1        0.0000
   1874 C           1.5989  -11.7337   34.4879 C.ar    1  UNL1        0.0000
   1875 C          11.0847  -18.2308   34.5795 C.2     1  UNL1        0.0000
   1876 C           6.5030   -4.2448   32.5564 C.ar    1  UNL1        0.0000
   1877 C          15.6049  -10.4983   34.0428 C.ar    1  UNL1        0.0000
   1878 C           1.8846  -11.9359   33.1203 C.ar    1  UNL1        0.0000
   1879 C          12.1711  -19.0946   34.9403 C.3     1  UNL1        0.0000
   1880 C           5.4241   -3.4058   32.2008 C.ar    1  UNL1        0.0000
   1881 C           6.7998   -4.4964   33.8917 C.ar    1  UNL1        0.0000
   1882 C          10.8094  -17.9953   33.2124 C.3     1  UNL1        0.0000
   1883 C          17.0436  -11.4411   32.2844 C.ar    1  UNL1        0.0000
   1884 C           0.4866  -10.9991   34.8843 C.ar    1  UNL1        0.0000
   1885 C           9.3931  -10.0704   32.9768 C.ar    1  UNL1        0.0000
   1886 C           8.0920  -12.2554   34.1722 C.ar    1  UNL1        0.0000
   1887 C          13.1840   -4.7528   32.8823 C.ar    1  UNL1        0.0000
   1888 C           4.5160  -17.7731   34.2271 C.2     1  UNL1        0.0000
   1889 C          14.3394  -13.6616   26.9156 C.2     1  UNL1        0.0000
   1890 C           8.0744   -1.2989   26.9587 C.ar    1  UNL1        0.0000
   1891 C          18.0261   -8.2321   26.7895 C.ar    1  UNL1        0.0000
   1892 C           4.4337   -6.7292   26.7785 C.ar    1  UNL1        0.0000
   1893 C          10.1156   -8.9912   32.2824 C.3     1  UNL1        0.0000
   1894 C           7.3950  -13.4030   34.8249 C.3     1  UNL1        0.0000
   1895 C          12.5110   -5.7916   32.0942 C.3     1  UNL1        0.0000
   1896 C           5.1616  -16.6819   35.0084 C.2     1  UNL1        0.0000
   1897 C          14.3930  -12.1726   26.9188 C.2     1  UNL1        0.0000
   1898 C           8.0560   -2.7667   26.9126 C.3     1  UNL1        0.0000
   1899 C          16.7372   -8.9411   26.8143 C.3     1  UNL1        0.0000
   1900 C           5.7319   -5.9937   26.8151 C.3     1  UNL1        0.0000
   1901 C           8.0233   -9.9427   33.3771 C.ar    1  UNL1        0.0000
   1902 C           9.4483  -12.3727   33.7994 C.ar    1  UNL1        0.0000
   1903 C          12.4640   -3.5795   33.2057 C.ar    1  UNL1        0.0000
   1904 C           5.2519  -18.9132   33.9240 C.3     1  UNL1        0.0000
   1905 C          14.2490  -14.3283   28.1322 C.3     1  UNL1        0.0000
   1906 C           3.3100   -8.0706   39.0989 C.2    11  UNL11       0.0000
   1907 C          18.6044   -7.8544   28.0232 C.ar    1  UNL1        0.0000
   1908 C          -0.9624  -14.5678   38.9100 C.2     3  UNL3        0.0000
   1909 C          14.5463   -4.8864   33.3059 C.ar    1  UNL1        0.0000
   1910 C           3.1706  -17.6465   33.8198 C.3     1  UNL1        0.0000
   1911 C          10.0717  -11.2894   33.2073 C.ar    1  UNL1        0.0000
   1912 C           7.3986  -11.0674   33.9661 C.ar    1  UNL1        0.0000
   1913 C          13.8316  -15.3622   38.9278 C.2    12  UNL12       0.0000
   1914 C           3.7882   -7.0834   27.9830 C.ar    1  UNL1        0.0000
   1915 C           9.5056  -21.8549   39.0587 C.3    35  UNL35       0.0000
   1916 C           8.0346   -0.5737   28.1939 C.ar    1  UNL1        0.0000
   1917 N           7.3164   -8.7773   33.2454 N.pl3   1  UNL1        0.0000
   1918 N           7.9010   -1.1793   29.4108 N.pl3   1  UNL1        0.0000
   1919 N          13.3634  -15.7309   37.6958 N.pl3  12  UNL12       0.0000
   1920 N          15.2935   -6.0076   33.0694 N.pl3   1  UNL1        0.0000
   1921 N          14.5029   -9.8258   34.4854 N.pl3   1  UNL1        0.0000
   1922 N          12.4832  -19.4114   36.2302 N.3     1  UNL1        0.0000
   1923 O          14.0532   -9.3929   31.9108 O.3     1  UNL1        0.0000
   1924 O           3.4358  -13.0869   35.1606 O.3     1  UNL1        0.0000
   1925 O          10.5076  -17.7581   36.8371 O.2     1  UNL1        0.0000
   1926 O           7.0179   -4.7004   30.2781 O.3     1  UNL1        0.0000
   1927 O           8.3725   -5.5489   31.8794 O.3     1  UNL1        0.0000
   1928 O           9.2594  -16.8335   35.2016 O.2     1  UNL1        0.0000
   1929 O          15.3892  -10.3453   30.3595 O.3     1  UNL1        0.0000
   1930 O           2.2606  -11.9929   36.7551 O.3     1  UNL1        0.0000
   1931 O          12.7178  -10.0225   29.5616 O.3     1  UNL1        0.0000
   1932 O           4.9103  -12.4327   37.4471 O.3     1  UNL1        0.0000
   1933 O          14.1311   -8.0062   29.4947 O.3     1  UNL1        0.0000
   1934 O           3.4217  -14.3811   37.6313 O.3     1  UNL1        0.0000
   1935 O           7.8616  -17.5643   37.4540 O.3     1  UNL1        0.0000
   1936 O           9.6640   -4.8328   29.5908 O.3     1  UNL1        0.0000
   1937 O           9.0982  -15.4530   37.7072 O.3     1  UNL1        0.0000
   1938 O           8.5072   -7.0006   29.4329 O.3     1  UNL1        0.0000
   1939 O          11.3591   -9.1793   31.9925 O.3     1  UNL1        0.0000
   1940 O           6.1355  -13.3232   35.0122 O.3     1  UNL1        0.0000
   1941 O          13.1400   -6.8512   31.7678 O.3     1  UNL1        0.0000
   1942 O           4.4336  -15.7092   35.3960 O.2     1  UNL1        0.0000
   1943 O           9.5193  -19.0495   39.1484 O.3     1  UNL1        0.0000
   1944 O           7.9615   -3.4340   28.0007 O.3     1  UNL1        0.0000
   1945 O          11.3147  -16.7263   39.0660 O.3     1  UNL1        0.0000
   1946 O           6.2687   -5.8285   27.9694 O.3     1  UNL1        0.0000
   1947 O          11.2817   -5.5956   31.7406 O.3     1  UNL1        0.0000
   1948 O           6.4090  -16.7763   35.2596 O.2     1  UNL1        0.0000
   1949 O           9.4930   -7.9129   31.9799 O.3     1  UNL1        0.0000
   1950 O           8.1153  -14.4051   35.1672 O.3     1  UNL1        0.0000
   1951 O          16.2172   -9.2269   27.9588 O.3     1  UNL1        0.0000
   1952 O           1.3803  -13.0654   39.0817 O.3     1  UNL1        0.0000
   1953 O          14.4468  -11.5719   28.0367 O.2     1  UNL1        0.0000
   1954 O           3.2940  -10.8295   39.1291 O.3     1  UNL1        0.0000
   1955 O          11.1923   -7.5262   29.7222 O.3     1  UNL1        0.0000
   1956 O           6.3708  -14.8915   37.3281 O.3     1  UNL1        0.0000
   1957 O          13.6088   -9.0965   26.9076 O.3     1  UNL1        0.0000
   1958 O           8.8324   -5.8787   26.8228 O.3     1  UNL1        0.0000
   1959 N           8.3244  -12.4676   40.5016 N.pl3  36  UNL36       0.0000
   1960 N           9.2516  -12.4960   38.5201 N.pl3  36  UNL36       0.0000
   1961 C           7.3365  -12.1448   39.5850 C.2    36  UNL36       0.0000
   1962 C           7.9202  -12.1588   38.3425 C.2    36  UNL36       0.0000
   1963 C          10.7071  -11.2510   36.9332 C.3    36  UNL36       0.0000
   1964 C           8.1728  -12.4765   41.9671 C.3    36  UNL36       0.0000
   1965 C           9.4764  -12.6816   39.8329 C.3    36  UNL36       0.0000
   1966 C          10.2637  -12.6181   37.4467 C.3    36  UNL36       0.0000
   1967 H           6.3122  -11.9545   39.8847 H      36  UNL36       0.0000
   1968 H           7.4905  -11.9596   37.3684 H      36  UNL36       0.0000
   1969 H           9.8679  -10.7015   36.4871 H      36  UNL36       0.0000
   1970 H           8.6345  -11.5748   42.3846 H      36  UNL36       0.0000
   1971 H          11.1481  -10.6428   37.7327 H      36  UNL36       0.0000
   1972 H           7.1033  -12.4801   42.2008 H      36  UNL36       0.0000
   1973 H          11.4558  -11.3904   36.1407 H      36  UNL36       0.0000
   1974 H           9.8103  -13.2283   36.6562 H      36  UNL36       0.0000
   1975 H           8.6425  -13.3789   42.3781 H      36  UNL36       0.0000
   1976 H          10.4194  -12.9724   40.2788 H      36  UNL36       0.0000
   1977 H          11.0934  -13.1990   37.8669 H      36  UNL36       0.0000
   1978 N          14.8261   -4.1979   43.3094 N.3    37  UNL37       0.0000
   1979 C          12.8625   -3.6476   41.3946 C.3    37  UNL37       0.0000
   1980 C          14.9912   -6.8253   42.8836 C.3    37  UNL37       0.0000
   1981 O          14.9899   -2.1127   41.7494 O.2    37  UNL37       0.0000
   1982 O          13.2901   -2.3044   43.5879 O.2    37  UNL37       0.0000
   1983 O          17.0005   -5.3843   43.7338 O.2    37  UNL37       0.0000
   1984 O          16.2864   -5.0848   41.3315 O.2    37  UNL37       0.0000
   1985 F          11.9022   -4.3226   42.0822 F      37  UNL37       0.0000
   1986 F          12.2713   -2.6145   40.7312 F      37  UNL37       0.0000
   1987 F          13.3890   -4.4862   40.4711 F      37  UNL37       0.0000
   1988 F          15.7089   -7.8317   42.3118 F      37  UNL37       0.0000
   1989 F          14.7772   -7.1605   44.1884 F      37  UNL37       0.0000
   1990 F          13.7889   -6.7813   42.2521 F      37  UNL37       0.0000
   1991 S          14.1301   -2.9574   42.5955 S.O2   37  UNL37       0.0000
   1992 S          15.9446   -5.2049   42.7418 S.O2   37  UNL37       0.0000
   1993 TI          6.8970   17.4484   11.6278 Ti      1  UNL1        0.0000
   1994 TI         17.9750   20.5112    2.0171 Ti      1  UNL1        0.0000
   1995 TI         11.4419   14.1336    9.7319 Ti      1  UNL1        0.0000
   1996 TI         13.3828   23.8249    3.9087 Ti      1  UNL1        0.0000
   1997 TI         11.7101   24.7133    1.9416 Ti      1  UNL1        0.0000
   1998 TI         12.9131   12.9689   11.7011 Ti      1  UNL1        0.0000
   1999 TI          8.3442   16.1481    9.7287 Ti      1  UNL1        0.0000
   2000 TI         16.2591   21.5549    3.8658 Ti      1  UNL1        0.0000
   2001 H          13.5448   16.8164    7.2518 H       1  UNL1        0.0000
   2002 H           9.8592   11.1465    7.5375 H       1  UNL1        0.0000
   2003 H          15.0087   26.6107    6.1387 H       1  UNL1        0.0000
   2004 H           6.9095   21.4687   11.4596 H       1  UNL1        0.0000
   2005 H          17.8011   16.3811    2.3267 H       1  UNL1        0.0000
   2006 H           3.1441   15.8360   11.2788 H       1  UNL1        0.0000
   2007 H          21.6475   21.9889    2.2058 H       1  UNL1        0.0000
   2008 H          13.1444    8.8127   11.3966 H       1  UNL1        0.0000
   2009 H           7.8066   23.3295    2.2078 H       1  UNL1        0.0000
   2010 H          14.6841   18.7739    6.1662 H       1  UNL1        0.0000
   2011 H           9.9309   19.1181    7.5522 H       1  UNL1        0.0000
   2012 H           6.1929   13.3793    7.3485 H       1  UNL1        0.0000
   2013 H          12.5758   23.2897    0.0208 H       1  UNL1        0.0000
   2014 H          16.9549   21.9753    0.1916 H       1  UNL1        0.0000
   2015 H          10.3165   15.8086   11.2977 H       1  UNL1        0.0000
   2016 H          14.3146   22.0748    2.3128 H       1  UNL1        0.0000
   2017 H          13.5507   12.7886    6.2534 H       1  UNL1        0.0000
   2018 H          11.2116   24.9768    7.4093 H       1  UNL1        0.0000
   2019 H           3.8683   19.2582    9.2238 H       1  UNL1        0.0000
   2020 H          20.8113   18.5606    4.4979 H       1  UNL1        0.0000
   2021 H           6.3315   17.6091    6.1105 H       1  UNL1        0.0000
   2022 H           8.7818   26.9019    4.4286 H       1  UNL1        0.0000
   2023 H           9.8856   21.3149    6.6384 H       1  UNL1        0.0000
   2024 H          11.2990   22.0790    5.9416 H       1  UNL1        0.0000
   2025 H          11.5454   27.9310    2.7292 H       1  UNL1        0.0000
   2026 H          17.7650   14.3270    3.5263 H       1  UNL1        0.0000
   2027 H          17.3427   14.8285   10.1529 H       1  UNL1        0.0000
   2028 H          15.9915   14.0207   10.9205 H       1  UNL1        0.0000
   2029 H          19.8670   24.1627    6.5004 H       1  UNL1        0.0000
   2030 H          18.4954   23.4310    5.6916 H       1  UNL1        0.0000
   2031 H          17.9945   20.5212    8.7456 H       1  UNL1        0.0000
   2032 H          17.4988   20.7877    7.0823 H       1  UNL1        0.0000
   2033 H          16.9091   10.2026    9.6995 H       1  UNL1        0.0000
   2034 H          15.5733   11.1950   10.2605 H       1  UNL1        0.0000
   2035 C          18.6470   20.0097    4.8624 C.3     1  UNL1        0.0000
   2036 C           6.0641   17.8154    8.8088 C.3     1  UNL1        0.0000
   2037 C          13.8085   12.5502    8.8627 C.3     1  UNL1        0.0000
   2038 C          10.9231   25.2563    4.7766 C.3     1  UNL1        0.0000
   2039 C          19.4796   19.4373    5.9308 C.ar    1  UNL1        0.0000
   2040 C           5.1731   18.3912    7.7645 C.ar    1  UNL1        0.0000
   2041 C          14.6589   11.8941    7.8560 C.ar    1  UNL1        0.0000
   2042 C          10.0772   25.8801    5.8330 C.ar    1  UNL1        0.0000
   2043 C          19.1791   19.6267    7.3194 C.ar    1  UNL1        0.0000
   2044 C           5.4588   18.1890    6.3969 C.ar    1  UNL1        0.0000
   2045 C          15.7453   11.0303    8.2168 C.ar    1  UNL1        0.0000
   2046 C           8.9983   26.7192    5.4774 C.ar    1  UNL1        0.0000
   2047 C          10.3739   25.6285    7.1683 C.ar    1  UNL1        0.0000
   2048 C          14.3836   12.1296    6.4890 C.ar    1  UNL1        0.0000
   2049 C          20.6178   18.6839    5.5610 C.ar    1  UNL1        0.0000
   2050 C           4.0608   19.1258    8.1609 C.ar    1  UNL1        0.0000
   2051 C          12.9673   20.0545    6.2533 C.ar    1  UNL1        0.0000
   2052 C          11.6662   17.8696    7.4488 C.ar    1  UNL1        0.0000
   2053 C          16.7582   25.3721    6.1589 C.ar    1  UNL1        0.0000
   2054 C           8.0902   12.3518    7.5037 C.ar    1  UNL1        0.0000
   2055 C          17.9136   16.4634    0.1922 C.2     1  UNL1        0.0000
   2056 C          11.6486   28.8260    0.2353 C.2     1  UNL1        0.0000
   2057 C          21.6003   21.8929    0.0661 C.2     1  UNL1        0.0000
   2058 C           8.0079   23.3958    0.0551 C.2     1  UNL1        0.0000
   2059 C          13.6898   21.1338    5.5590 C.3     1  UNL1        0.0000
   2060 C          10.9692   16.7219    8.1015 C.3     1  UNL1        0.0000
   2061 C          16.0852   24.3333    5.3708 C.3     1  UNL1        0.0000
   2062 C           8.7358   13.4431    8.2850 C.3     1  UNL1        0.0000
   2063 C          17.9672   17.9524    0.1954 C.2     1  UNL1        0.0000
   2064 C          11.6301   27.3582    0.1892 C.2     1  UNL1        0.0000
   2065 C          20.3114   21.1838    0.0909 C.2     1  UNL1        0.0000
   2066 C           9.3061   24.1313    0.0917 C.2     1  UNL1        0.0000
   2067 C          11.5975   20.1823    6.6537 C.ar    1  UNL1        0.0000
   2068 C          13.0225   17.7522    7.0760 C.ar    1  UNL1        0.0000
   2069 C          16.0382   26.5454    6.4823 C.ar    1  UNL1        0.0000
   2070 C           8.8261   11.2117    7.2006 C.ar    1  UNL1        0.0000
   2071 C          17.8232   15.7967    1.4088 C.2     1  UNL1        0.0000
   2072 C           6.8842   22.0543   12.3755 C.ar    1  UNL1        0.0000
   2073 C          22.1786   22.2706    1.2998 C.2     1  UNL1        0.0000
   2074 C           2.6118   15.5571   12.1866 C.ar    1  UNL1        0.0000
   2075 C          18.1205   25.2386    6.5825 C.ar    1  UNL1        0.0000
   2076 C           6.7448   12.4784    7.0964 C.ar    1  UNL1        0.0000
   2077 C          13.6459   18.8356    6.4838 C.ar    1  UNL1        0.0000
   2078 C          10.9728   19.0576    7.2427 C.ar    1  UNL1        0.0000
   2079 C          17.4057   14.7627   12.2044 C.ar    1  UNL1        0.0000
   2080 C           7.3624   23.0415    1.2596 C.2     1  UNL1        0.0000
   2081 C          13.0798    8.2700   12.3353 C.ar    1  UNL1        0.0000
   2082 C          11.6088   29.5513    1.4705 C.2     1  UNL1        0.0000
   2083 N          10.8906   21.3476    6.5220 N.pl3   1  UNL1        0.0000
   2084 N          11.4752   28.9456    2.6874 N.pl3   1  UNL1        0.0000
   2085 N          16.9376   14.3940   10.9723 N.pl3   1  UNL1        0.0000
   2086 N          18.8677   24.1173    6.3460 N.pl3   1  UNL1        0.0000
   2087 N          18.0771   20.2992    7.7620 N.pl3   1  UNL1        0.0000
   2088 N          16.0574   10.7135    9.5068 N.pl3   1  UNL1        0.0000
   2089 O          17.6274   20.7320    5.1874 O.3     1  UNL1        0.0000
   2090 O           7.0100   17.0381    8.4372 O.3     1  UNL1        0.0000
   2091 O          14.0817   12.3668   10.1137 O.3     1  UNL1        0.0000
   2092 O          10.5921   25.4245    3.5547 O.3     1  UNL1        0.0000
   2093 O          11.9467   24.5761    5.1559 O.3     1  UNL1        0.0000
   2094 O          12.8336   13.2915    8.4782 O.3     1  UNL1        0.0000
   2095 O          18.9634   19.7797    3.6361 O.3     1  UNL1        0.0000
   2096 O           5.8348   18.1320   10.0317 O.3     1  UNL1        0.0000
   2097 O          16.2920   20.1024    2.8382 O.3     1  UNL1        0.0000
   2098 O           8.4845   17.6922   10.7237 O.3     1  UNL1        0.0000
   2099 O          17.7053   22.1188    2.7713 O.3     1  UNL1        0.0000
   2100 O           6.9959   15.7438   10.9079 O.3     1  UNL1        0.0000
   2101 O          11.4358   12.5607   10.7306 O.3     1  UNL1        0.0000
   2102 O          13.2382   25.2921    2.8673 O.3     1  UNL1        0.0000
   2103 O          12.6724   14.6719   10.9838 O.3     1  UNL1        0.0000
   2104 O          12.0814   23.1244    2.7095 O.3     1  UNL1        0.0000
   2105 O          14.9333   20.9457    5.2690 O.3     1  UNL1        0.0000
   2106 O           9.7097   16.8018    8.2888 O.3     1  UNL1        0.0000
   2107 O          16.7142   23.2737    5.0444 O.3     1  UNL1        0.0000
   2108 O           8.0078   14.4157    8.6726 O.3     1  UNL1        0.0000
   2109 O          13.0935   11.0754   12.4249 O.3     1  UNL1        0.0000
   2110 O          11.5357   26.6910    1.2773 O.2     1  UNL1        0.0000
   2111 O          14.8889   13.3986   12.3426 O.3     1  UNL1        0.0000
   2112 O           9.8429   24.2965    1.2460 O.2     1  UNL1        0.0000
   2113 O          14.8559   24.5293    5.0172 O.3     1  UNL1        0.0000
   2114 O           9.9832   13.3486    8.5362 O.3     1  UNL1        0.0000
   2115 O          13.0672   22.2121    5.2565 O.3     1  UNL1        0.0000
   2116 O          11.6895   15.7198    8.4438 O.3     1  UNL1        0.0000
   2117 O          19.7914   20.8980    1.2354 O.2     1  UNL1        0.0000
   2118 O           4.9545   17.0596   12.3583 O.3     1  UNL1        0.0000
   2119 O          18.0210   18.5530    1.3133 O.2     1  UNL1        0.0000
   2120 O           6.8682   19.2954   12.4057 O.3     1  UNL1        0.0000
   2121 O          14.7665   22.5987    2.9988 O.3     1  UNL1        0.0000
   2122 O           9.9450   15.2335   10.6047 O.3     1  UNL1        0.0000
   2123 O          17.1830   21.0284    0.1842 O.3     1  UNL1        0.0000
   2124 O          12.4066   24.2462    0.0994 O.3     1  UNL1        0.0000
   2125 N          11.8986   17.6573   13.7782 N.pl3  38  UNL38       0.0000
   2126 N          12.8257   17.6289   11.7967 N.pl3  38  UNL38       0.0000
   2127 C          10.9107   17.9802   12.8615 C.2    38  UNL38       0.0000
   2128 C          11.4944   17.9661   11.6191 C.2    38  UNL38       0.0000
   2129 C          14.2813   18.8739   10.2098 C.3    38  UNL38       0.0000
   2130 C          11.7470   17.6485   15.2436 C.3    38  UNL38       0.0000
   2131 C          13.0506   17.4433   13.1095 C.3    38  UNL38       0.0000
   2132 C          13.8379   17.5069   10.7233 C.3    38  UNL38       0.0000
   2133 H           9.8864   18.1705   13.1613 H      38  UNL38       0.0000
   2134 H          11.0647   18.1653   10.6450 H      38  UNL38       0.0000
   2135 H          13.4420   19.4235    9.7637 H      38  UNL38       0.0000
   2136 H          12.2087   18.5502   15.6612 H      38  UNL38       0.0000
   2137 H          14.7223   19.4821   11.0093 H      38  UNL38       0.0000
   2138 H          10.6775   17.6448   15.4774 H      38  UNL38       0.0000
   2139 H          15.0300   18.7345    9.4173 H      38  UNL38       0.0000
   2140 H          13.3845   16.8967    9.9328 H      38  UNL38       0.0000
   2141 H          12.2167   16.7460   15.6547 H      38  UNL38       0.0000
   2142 H          13.9936   17.1526   13.5554 H      38  UNL38       0.0000
   2143 H          14.6676   16.9259   11.1435 H      38  UNL38       0.0000
   2144 N          18.4003   25.9271   16.5860 N.3    39  UNL39       0.0000
   2145 C          16.4367   26.4773   14.6712 C.3    39  UNL39       0.0000
   2146 C          18.5654   23.2997   16.1602 C.3    39  UNL39       0.0000
   2147 O          18.5641   28.0122   15.0260 O.2    39  UNL39       0.0000
   2148 O          16.8643   27.8205   16.8645 O.2    39  UNL39       0.0000
   2149 O          20.5747   24.7407   17.0104 O.2    39  UNL39       0.0000
   2150 O          19.8606   25.0402   14.6081 O.2    39  UNL39       0.0000
   2151 F          15.4764   25.8024   15.3588 F      39  UNL39       0.0000
   2152 F          15.8455   27.5105   14.0077 F      39  UNL39       0.0000
   2153 F          16.9632   25.6387   13.7477 F      39  UNL39       0.0000
   2154 F          19.2831   22.2933   15.5884 F      39  UNL39       0.0000
   2155 F          18.3514   22.9644   17.4650 F      39  UNL39       0.0000
   2156 F          17.3631   23.3436   15.5286 F      39  UNL39       0.0000
   2157 S          17.7043   27.1675   15.8721 S.O2   39  UNL39       0.0000
   2158 S          19.5188   24.9201   16.0184 S.O2   39  UNL39       0.0000
   2159 TI          2.0415    9.9687   24.9888 Ti      1  UNL1        0.0000
   2160 TI         13.1194   13.0314   15.3781 Ti      1  UNL1        0.0000
   2161 TI          6.5864    6.6539   23.0929 Ti      1  UNL1        0.0000
   2162 TI          8.5272   16.3452   17.2697 Ti      1  UNL1        0.0000
   2163 TI          6.8546   17.2336   15.3026 Ti      1  UNL1        0.0000
   2164 TI          8.0576    5.4892   25.0621 Ti      1  UNL1        0.0000
   2165 TI          3.4887    8.6683   23.0897 Ti      1  UNL1        0.0000
   2166 TI         11.4036   14.0751   17.2268 Ti      1  UNL1        0.0000
   2167 H           8.6893    9.3367   20.6128 H       1  UNL1        0.0000
   2168 H           5.0037    3.6668   20.8985 H       1  UNL1        0.0000
   2169 H          10.1531   19.1310   19.4997 H       1  UNL1        0.0000
   2170 H           2.0539   13.9889   24.8206 H       1  UNL1        0.0000
   2171 H          12.9456    8.9013   15.6877 H       1  UNL1        0.0000
   2172 H          -1.7115    8.3562   24.6398 H       1  UNL1        0.0000
   2173 H          16.7920   14.5092   15.5668 H       1  UNL1        0.0000
   2174 H           8.2889    1.3330   24.7576 H       1  UNL1        0.0000
   2175 H           2.9510   15.8497   15.5688 H       1  UNL1        0.0000
   2176 H           9.8285   11.2942   19.5272 H       1  UNL1        0.0000
   2177 H           5.0753   11.6384   20.9132 H       1  UNL1        0.0000
   2178 H           1.3373    5.8995   20.7095 H       1  UNL1        0.0000
   2179 H           7.7203   15.8100   13.3818 H       1  UNL1        0.0000
   2180 H          12.0994   14.4956   13.5526 H       1  UNL1        0.0000
   2181 H           5.4609    8.3289   24.6587 H       1  UNL1        0.0000
   2182 H           9.4591   14.5951   15.6738 H       1  UNL1        0.0000
   2183 H           8.6952    5.3088   19.6144 H       1  UNL1        0.0000
   2184 H           6.3561   17.4970   20.7703 H       1  UNL1        0.0000
   2185 H          -0.9872   11.7785   22.5848 H       1  UNL1        0.0000
   2186 H          15.9558   11.0808   17.8589 H       1  UNL1        0.0000
   2187 H           1.4760   10.1294   19.4715 H       1  UNL1        0.0000
   2188 H           3.9263   19.4222   17.7896 H       1  UNL1        0.0000
   2189 H           5.0301   13.8351   19.9994 H       1  UNL1        0.0000
   2190 H           6.4435   14.5993   19.3026 H       1  UNL1        0.0000
   2191 H           6.6898   20.4513   16.0902 H       1  UNL1        0.0000
   2192 H          12.9094    6.8472   16.8873 H       1  UNL1        0.0000
   2193 H          12.4872    7.3488   23.5139 H       1  UNL1        0.0000
   2194 H          11.1360    6.5410   24.2815 H       1  UNL1        0.0000
   2195 H          15.0115   16.6829   19.8614 H       1  UNL1        0.0000
   2196 H          13.6398   15.9513   19.0526 H       1  UNL1        0.0000
   2197 H          13.1389   13.0415   22.1066 H       1  UNL1        0.0000
   2198 H          12.6433   13.3080   20.4433 H       1  UNL1        0.0000
   2199 H          12.0536    2.7228   23.0605 H       1  UNL1        0.0000
   2200 H          10.7178    3.7152   23.6215 H       1  UNL1        0.0000
   2201 C          13.7915   12.5300   18.2234 C.3     1  UNL1        0.0000
   2202 C           1.2086   10.3356   22.1698 C.3     1  UNL1        0.0000
   2203 C           8.9529    5.0704   22.2237 C.3     1  UNL1        0.0000
   2204 C           6.0676   17.7766   18.1376 C.3     1  UNL1        0.0000
   2205 C          14.6240   11.9575   19.2918 C.ar    1  UNL1        0.0000
   2206 C           0.3175   10.9115   21.1255 C.ar    1  UNL1        0.0000
   2207 C           9.8034    4.4144   21.2170 C.ar    1  UNL1        0.0000
   2208 C           5.2217   18.4004   19.1940 C.ar    1  UNL1        0.0000
   2209 C          14.3235   12.1469   20.6804 C.ar    1  UNL1        0.0000
   2210 C           0.6033   10.7093   19.7579 C.ar    1  UNL1        0.0000
   2211 C          10.8898    3.5506   21.5778 C.ar    1  UNL1        0.0000
   2212 C           4.1428   19.2394   18.8384 C.ar    1  UNL1        0.0000
   2213 C           5.5184   18.1488   20.5293 C.ar    1  UNL1        0.0000
   2214 C           9.5281    4.6499   19.8500 C.ar    1  UNL1        0.0000
   2215 C          15.7622   11.2041   18.9220 C.ar    1  UNL1        0.0000
   2216 C          -0.7947   11.6461   21.5219 C.ar    1  UNL1        0.0000
   2217 C           8.1117   12.5748   19.6143 C.ar    1  UNL1        0.0000
   2218 C           6.8107   10.3898   20.8098 C.ar    1  UNL1        0.0000
   2219 C          11.9027   17.8924   19.5199 C.ar    1  UNL1        0.0000
   2220 C           3.2347    4.8721   20.8647 C.ar    1  UNL1        0.0000
   2221 C          13.0580    8.9836   13.5532 C.ar    1  UNL1        0.0000
   2222 C           6.7931   21.3463   13.5963 C.ar    1  UNL1        0.0000
   2223 C          16.7448   14.4131   13.4271 C.ar    1  UNL1        0.0000
   2224 C           3.1523   15.9160   13.4161 C.ar    1  UNL1        0.0000
   2225 C           8.8342   13.6540   18.9200 C.3     1  UNL1        0.0000
   2226 C           6.1137    9.2422   21.4625 C.3     1  UNL1        0.0000
   2227 C          11.2297   16.8536   18.7318 C.3     1  UNL1        0.0000
   2228 C           3.8803    5.9633   21.6460 C.3     1  UNL1        0.0000
   2229 C          13.1116   10.4726   13.5564 C.3     1  UNL1        0.0000
   2230 C           6.7746   19.8785   13.5502 C.3     1  UNL1        0.0000
   2231 C          15.4558   13.7041   13.4519 C.3     1  UNL1        0.0000
   2232 C           4.4506   16.6515   13.4527 C.3     1  UNL1        0.0000
   2233 C           6.7420   12.7025   20.0147 C.ar    1  UNL1        0.0000
   2234 C           8.1670   10.2725   20.4370 C.ar    1  UNL1        0.0000
   2235 C          11.1827   19.0657   19.8433 C.ar    1  UNL1        0.0000
   2236 C           3.9706    3.7320   20.5616 C.ar    1  UNL1        0.0000
   2237 C          12.9677    8.3169   14.7698 C.ar    1  UNL1        0.0000
   2238 C           2.0286   14.5746   25.7365 C.ar    1  UNL1        0.0000
   2239 C          17.3231   14.7908   14.6608 C.ar    1  UNL1        0.0000
   2240 C          -2.2438    8.0774   25.5476 C.ar    1  UNL1        0.0000
   2241 C          13.2650   17.7588   19.9435 C.ar    1  UNL1        0.0000
   2242 C           1.8893    4.9987   20.4574 C.ar    1  UNL1        0.0000
   2243 C           8.7904   11.3558   19.8448 C.ar    1  UNL1        0.0000
   2244 C           6.1172   11.5778   20.6037 C.ar    1  UNL1        0.0000
   2245 C          12.5502    7.2830   25.5654 C.ar    1  UNL1        0.0000
   2246 C           2.5069   15.5618   14.6206 C.ar    1  UNL1        0.0000
   2247 C           8.2242    0.7903   25.6963 C.ar    1  UNL1        0.0000
   2248 C           6.7533   22.0715   14.8315 C.ar    1  UNL1        0.0000
   2249 N           6.0350   13.8679   19.8830 N.pl3   1  UNL1        0.0000
   2250 N           6.6197   21.4659   16.0484 N.pl3   1  UNL1        0.0000
   2251 N          12.0821    6.9143   24.3333 N.pl3   1  UNL1        0.0000
   2252 N          14.0122   16.6376   19.7070 N.pl3   1  UNL1        0.0000
   2253 N          13.2216   12.8194   21.1230 N.pl3   1  UNL1        0.0000
   2254 N          11.2019    3.2338   22.8678 N.pl3   1  UNL1        0.0000
   2255 O          12.7719   13.2523   18.5484 O.3     1  UNL1        0.0000
   2256 O           2.1544    9.5583   21.7982 O.3     1  UNL1        0.0000
   2257 O           9.2262    4.8871   23.4747 O.3     1  UNL1        0.0000
   2258 O           5.7366   17.9448   16.9157 O.3     1  UNL1        0.0000
   2259 O           7.0912   17.0963   18.5169 O.3     1  UNL1        0.0000
   2260 O           7.9780    5.8117   21.8392 O.3     1  UNL1        0.0000
   2261 O          14.1078   12.2999   16.9971 O.3     1  UNL1        0.0000
   2262 O           0.9793   10.6523   23.3927 O.3     1  UNL1        0.0000
   2263 O          11.4365   12.6227   16.1992 O.3     1  UNL1        0.0000
   2264 O           3.6289   10.2125   24.0847 O.3     1  UNL1        0.0000
   2265 O          12.8498   14.6390   16.1323 O.3     1  UNL1        0.0000
   2266 O           2.1404    8.2641   24.2689 O.3     1  UNL1        0.0000
   2267 O           6.5803    5.0809   24.0916 O.3     1  UNL1        0.0000
   2268 O           8.3826   17.8124   16.2283 O.3     1  UNL1        0.0000
   2269 O           7.8168    7.1922   24.3448 O.3     1  UNL1        0.0000
   2270 O           7.2258   15.6446   16.0705 O.3     1  UNL1        0.0000
   2271 O          10.0778   13.4659   18.6300 O.3     1  UNL1        0.0000
   2272 O           4.8542    9.3220   21.6498 O.3     1  UNL1        0.0000
   2273 O          11.8587   15.7940   18.4054 O.3     1  UNL1        0.0000
   2274 O           3.1523    6.9360   22.0336 O.3     1  UNL1        0.0000
   2275 O           8.2380    3.5957   25.7859 O.3     1  UNL1        0.0000
   2276 O           6.6802   19.2112   14.6383 O.3     1  UNL1        0.0000
   2277 O          10.0334    5.9189   25.7036 O.3     1  UNL1        0.0000
   2278 O           4.9874   16.8167   14.6070 O.3     1  UNL1        0.0000
   2279 O          10.0004   17.0496   18.3782 O.3     1  UNL1        0.0000
   2280 O           5.1276    5.8689   21.8972 O.3     1  UNL1        0.0000
   2281 O           8.2117   14.7323   18.6175 O.3     1  UNL1        0.0000
   2282 O           6.8340    8.2401   21.8048 O.3     1  UNL1        0.0000
   2283 O          14.9359   13.4183   14.5964 O.3     1  UNL1        0.0000
   2284 O           0.0989    9.5798   25.7193 O.3     1  UNL1        0.0000
   2285 O          13.1655   11.0733   14.6743 O.3     1  UNL1        0.0000
   2286 O           2.0126   11.8157   25.7667 O.3     1  UNL1        0.0000
   2287 O           9.9110   15.1190   16.3598 O.3     1  UNL1        0.0000
   2288 O           5.0895    7.7537   23.9657 O.3     1  UNL1        0.0000
   2289 O          12.3274   13.5487   13.5452 O.3     1  UNL1        0.0000
   2290 O           7.5510   16.7665   13.4604 O.3     1  UNL1        0.0000
   2291 N           7.0431   10.1776   27.1392 N.pl3  40  UNL40       0.0000
   2292 N           7.9702   10.1492   25.1577 N.pl3  40  UNL40       0.0000
   2293 C           6.0552   10.5004   26.2225 C.2    40  UNL40       0.0000
   2294 C           6.6388   10.4864   24.9801 C.2    40  UNL40       0.0000
   2295 C           9.4258   11.3942   23.5708 C.3    40  UNL40       0.0000
   2296 C           6.8915   10.1687   28.6046 C.3    40  UNL40       0.0000
   2297 C           8.1951    9.9636   26.4705 C.3    40  UNL40       0.0000
   2298 C           8.9823   10.0271   24.0843 C.3    40  UNL40       0.0000
   2299 H           5.0309   10.6907   26.5223 H      40  UNL40       0.0000
   2300 H           6.2091   10.6856   24.0060 H      40  UNL40       0.0000
   2301 H           8.5865   11.9437   23.1247 H      40  UNL40       0.0000
   2302 H           7.3532   11.0704   29.0222 H      40  UNL40       0.0000
   2303 H           9.8668   12.0024   24.3703 H      40  UNL40       0.0000
   2304 H           5.8220   10.1651   28.8384 H      40  UNL40       0.0000
   2305 H          10.1745   11.2548   22.7783 H      40  UNL40       0.0000
   2306 H           8.5290    9.4169   23.2938 H      40  UNL40       0.0000
   2307 H           7.3612    9.2663   29.0157 H      40  UNL40       0.0000
   2308 H           9.1380    9.6728   26.9164 H      40  UNL40       0.0000
   2309 H           9.8121    9.4462   24.5045 H      40  UNL40       0.0000
   2310 N          13.5448   18.4473   29.9470 N.3    40  UNL40       0.0000
   2311 C          11.5812   18.9976   28.0322 C.3    40  UNL40       0.0000
   2312 C          13.7099   15.8199   29.5212 C.3    40  UNL40       0.0000
   2313 O          13.7086   20.5325   28.3870 O.2    40  UNL40       0.0000
   2314 O          12.0087   20.3408   30.2255 O.2    40  UNL40       0.0000
   2315 O          15.7192   17.2609   30.3714 O.2    40  UNL40       0.0000
   2316 O          15.0050   17.5604   27.9691 O.2    40  UNL40       0.0000
   2317 F          10.6209   18.3226   28.7198 F      40  UNL40       0.0000
   2318 F          10.9899   20.0307   27.3687 F      40  UNL40       0.0000
   2319 F          12.1076   18.1590   27.1087 F      40  UNL40       0.0000
   2320 F          14.4276   14.8136   28.9494 F      40  UNL40       0.0000
   2321 F          13.4959   15.4847   30.8260 F      40  UNL40       0.0000
   2322 F          12.5076   15.8639   28.8896 F      40  UNL40       0.0000
   2323 S          12.8487   19.6878   29.2331 S.O2   40  UNL40       0.0000
   2324 S          14.6633   17.4403   29.3794 S.O2   40  UNL40       0.0000
   2325 TI         -2.8140    2.4889   38.3498 Ti      1  UNL1        0.0000
   2326 TI          8.2639    5.5517   28.7391 Ti      1  UNL1        0.0000
   2327 TI          1.7308   -0.8259   36.4539 Ti      1  UNL1        0.0000
   2328 TI          3.6717    8.8654   30.6307 Ti      1  UNL1        0.0000
   2329 TI          1.9991    9.7539   28.6636 Ti      1  UNL1        0.0000
   2330 TI          3.2021   -1.9906   38.4231 Ti      1  UNL1        0.0000
   2331 TI         -1.3669    1.1886   36.4507 Ti      1  UNL1        0.0000
   2332 TI          6.5481    6.5954   30.5878 Ti      1  UNL1        0.0000
   2333 H           3.8337    1.8569   33.9738 H       1  UNL1        0.0000
   2334 H           0.1481   -3.8129   34.2595 H       1  UNL1        0.0000
   2335 H           5.2976   11.6513   32.8607 H       1  UNL1        0.0000
   2336 H          -2.8016    6.5092   38.1816 H      40  UNL40       0.0000
   2337 H           8.0900    1.4216   29.0487 H       1  UNL1        0.0000
   2338 H          -6.5670    0.8765   38.0008 H       7  UNL7        0.0000
   2339 H          11.9364    7.0295   28.9278 H       1  UNL1        0.0000
   2340 H           3.4334   -6.1468   38.1186 H      11  UNL11       0.0000
   2341 H          -1.9045    8.3700   28.9298 H       1  UNL1        0.0000
   2342 H           4.9730    3.8145   32.8882 H       1  UNL1        0.0000
   2343 H           0.2198    4.1586   34.2742 H       1  UNL1        0.0000
   2344 H          -3.5182   -1.5802   34.0705 H       1  UNL1        0.0000
   2345 H           2.8648    8.3302   26.7428 H       1  UNL1        0.0000
   2346 H           7.2439    7.0159   26.9136 H       1  UNL1        0.0000
   2347 H           0.6054    0.8491   38.0197 H       1  UNL1        0.0000
   2348 H           4.6036    7.1153   29.0348 H       1  UNL1        0.0000
   2349 H           3.8396   -2.1709   32.9754 H       1  UNL1        0.0000
   2350 H           1.5006   10.0173   34.1313 H       1  UNL1        0.0000
   2351 H          -5.8427    4.2988   35.9458 H       1  UNL1        0.0000
   2352 H          11.1002    3.6011   31.2199 H       1  UNL1        0.0000
   2353 H          -3.3795    2.6496   32.8325 H       1  UNL1        0.0000
   2354 H          -0.9292   11.9424   31.1506 H       1  UNL1        0.0000
   2355 H           0.1746    6.3554   33.3604 H       1  UNL1        0.0000
   2356 H           1.5879    7.1195   32.6636 H       1  UNL1        0.0000
   2357 H           1.8343   12.9715   29.4512 H       1  UNL1        0.0000
   2358 H           8.0539   -0.6325   30.2483 H       1  UNL1        0.0000
   2359 H           7.6317   -0.1309   36.8749 H      40  UNL40       0.0000
   2360 H           6.2805   -0.9388   37.6425 H      40  UNL40       0.0000
   2361 H          10.1560    9.2032   33.2224 H       1  UNL1        0.0000
   2362 H           8.7843    8.4716   32.4136 H       1  UNL1        0.0000
   2363 H           8.2834    5.5617   35.4676 H       1  UNL1        0.0000
   2364 H           7.7878    5.8283   33.8043 H       1  UNL1        0.0000
   2365 H           7.1981   -4.7569   36.4215 H       1  UNL1        0.0000
   2366 H           5.8622   -3.7645   36.9825 H       1  UNL1        0.0000
   2367 C           8.9359    5.0502   31.5844 C.3     1  UNL1        0.0000
   2368 C          -3.6469    2.8559   35.5308 C.3     1  UNL1        0.0000
   2369 C           4.0974   -2.4093   35.5847 C.3     1  UNL1        0.0000
   2370 C           1.2120   10.2968   31.4986 C.3     1  UNL1        0.0000
   2371 C           9.7685    4.4778   32.6527 C.ar    1  UNL1        0.0000
   2372 C          -4.5380    3.4317   34.4865 C.ar    1  UNL1        0.0000
   2373 C           4.9479   -3.0653   34.5780 C.ar    1  UNL1        0.0000
   2374 C           0.3662   10.9206   32.5550 C.ar    1  UNL1        0.0000
   2375 C           9.4680    4.6672   34.0414 C.ar    1  UNL1        0.0000
   2376 C          -4.2523    3.2295   33.1189 C.ar    1  UNL1        0.0000
   2377 C           6.0343   -3.9292   34.9388 C.ar    1  UNL1        0.0000
   2378 C          -0.7127   11.7597   32.1994 C.ar    1  UNL1        0.0000
   2379 C           0.6629   10.6690   33.8903 C.ar    1  UNL1        0.0000
   2380 C           4.6725   -2.8299   33.2110 C.ar    1  UNL1        0.0000
   2381 C          10.9067    3.7244   32.2830 C.ar    1  UNL1        0.0000
   2382 C          -5.6502    4.1663   34.8829 C.ar    1  UNL1        0.0000
   2383 C           3.2562    5.0950   32.9753 C.ar    1  UNL1        0.0000
   2384 C           1.9551    2.9101   34.1708 C.ar    1  UNL1        0.0000
   2385 C           7.0472   10.4127   32.8809 C.ar    1  UNL1        0.0000
   2386 C          -1.6208   -2.6076   34.2257 C.ar    1  UNL1        0.0000
   2387 C           8.2025    1.5039   26.9142 C.ar    1  UNL1        0.0000
   2388 C           1.9375   13.8665   26.9573 C.ar    1  UNL1        0.0000
   2389 C          11.8893    6.9334   26.7881 C.ar    1  UNL1        0.0000
   2390 C          -1.7032    8.4363   26.7771 C.ar    1  UNL1        0.0000
   2391 C           3.9787    6.1743   32.2810 C.3     1  UNL1        0.0000
   2392 C           1.2582    1.7624   34.8235 C.3     1  UNL1        0.0000
   2393 C           6.3741    9.3738   32.0928 C.3     1  UNL1        0.0000
   2394 C          -0.9752   -1.5164   35.0070 C.3     1  UNL1        0.0000
   2395 C           8.2561    2.9929   26.9174 C.3     1  UNL1        0.0000
   2396 C           1.9191   12.3987   26.9112 C.3     1  UNL1        0.0000
   2397 C          10.6003    6.2243   26.8129 C.3     1  UNL1        0.0000
   2398 C          -0.4050    9.1718   26.8137 C.3     1  UNL1        0.0000
   2399 C           1.8864    5.2228   33.3757 C.ar    1  UNL1        0.0000
   2400 C           3.3115    2.7927   33.7980 C.ar    1  UNL1        0.0000
   2401 C           6.3271   11.5859   33.2043 C.ar    1  UNL1        0.0000
   2402 C          -0.8849   -3.7478   33.9226 C.ar    1  UNL1        0.0000
   2403 C           8.1122    0.8372   28.1308 C.ar    1  UNL1        0.0000
   2404 C          -2.8269    7.0949   39.0975 C.2    40  UNL40       0.0000
   2405 C          12.4675    7.3111   28.0218 C.ar    1  UNL1        0.0000
   2406 C          -7.0993    0.5976   38.9086 C.2     7  UNL7        0.0000
   2407 C           8.4094   10.2791   33.3045 C.ar    1  UNL1        0.0000
   2408 C          -2.9663   -2.4811   33.8184 C.ar    1  UNL1        0.0000
   2409 C           3.9349    3.8761   33.2058 C.ar    1  UNL1        0.0000
   2410 C           1.2617    4.0981   33.9647 C.ar    1  UNL1        0.0000
   2411 C           7.6947   -0.1968   38.9264 C.2    40  UNL40       0.0000
   2412 C          -2.3487    8.0821   27.9816 C.ar    1  UNL1        0.0000
   2413 C           3.3687   -6.6895   39.0573 C.2    11  UNL11       0.0000
   2414 C           1.8977   14.5918   28.1925 C.ar    1  UNL1        0.0000
   2415 N           1.1795    6.3882   33.2440 N.pl3   1  UNL1        0.0000
   2416 N           1.7642   13.9861   29.4094 N.pl3   1  UNL1        0.0000
   2417 N           7.2266   -0.5655   37.6943 N.pl3  40  UNL40       0.0000
   2418 N           9.1566    9.1578   33.0680 N.pl3   1  UNL1        0.0000
   2419 N           8.3660    5.3397   34.4840 N.pl3   1  UNL1        0.0000
   2420 N           6.3463   -4.2459   36.2288 N.pl3   1  UNL1        0.0000
   2421 O           7.9164    5.7725   31.9093 O.3     1  UNL1        0.0000
   2422 O          -2.7011    2.0786   35.1592 O.3     1  UNL1        0.0000
   2423 O           4.3707   -2.5926   36.8357 O.3     1  UNL1        0.0000
   2424 O           0.8810   10.4650   30.2767 O.3     1  UNL1        0.0000
   2425 O           2.2357    9.6166   31.8779 O.3     1  UNL1        0.0000
   2426 O           3.1225   -1.6680   35.2002 O.3     1  UNL1        0.0000
   2427 O           9.2523    4.8202   30.3581 O.3     1  UNL1        0.0000
   2428 O          -3.8763    3.1725   36.7537 O.3     1  UNL1        0.0000
   2429 O           6.5810    5.1430   29.5602 O.3     1  UNL1        0.0000
   2430 O          -1.2266    2.7327   37.4457 O.3     1  UNL1        0.0000
   2431 O           7.9943    7.1593   29.4933 O.3     1  UNL1        0.0000
   2432 O          -2.7151    0.7844   37.6299 O.3     1  UNL1        0.0000
   2433 O           1.7247   -2.3988   37.4526 O.3     1  UNL1        0.0000
   2434 O           3.5271   10.3326   29.5893 O.3     1  UNL1        0.0000
   2435 O           2.9613   -0.2876   37.7058 O.3     1  UNL1        0.0000
   2436 O           2.3703    8.1649   29.4315 O.3     1  UNL1        0.0000
   2437 O           5.2223    5.9862   31.9910 O.3     1  UNL1        0.0000
   2438 O          -0.0014    1.8423   35.0108 O.3     1  UNL1        0.0000
   2439 O           7.0031    8.3143   31.7664 O.3     1  UNL1        0.0000
   2440 O          -1.7032   -0.5438   35.3946 O.3     1  UNL1        0.0000
   2441 O           3.3824   -3.8841   39.1469 O.3     1  UNL1        0.0000
   2442 O           1.8247   11.7315   27.9993 O.3     1  UNL1        0.0000
   2443 O           5.1778   -1.5609   39.0646 O.3     1  UNL1        0.0000
   2444 O           0.1318    9.3370   27.9680 O.3     1  UNL1        0.0000
   2445 O           5.1448    9.5699   31.7392 O.3     1  UNL1        0.0000
   2446 O           0.2721   -1.6109   35.2582 O.3     1  UNL1        0.0000
   2447 O           3.3562    7.2526   31.9785 O.3     1  UNL1        0.0000
   2448 O           1.9784    0.7603   35.1658 O.3     1  UNL1        0.0000
   2449 O          10.0804    5.9385   27.9574 O.3     1  UNL1        0.0000
   2450 O          -4.7566    2.1001   39.0803 O.3     1  UNL1        0.0000
   2451 O           8.3100    3.5935   28.0353 O.3     1  UNL1        0.0000
   2452 O          -2.8429    4.3360   39.1277 O.3     1  UNL1        0.0000
   2453 O           5.0555    7.6392   29.7208 O.3     1  UNL1        0.0000
   2454 O           0.2340    0.2740   37.3267 O.3     1  UNL1        0.0000
   2455 O           7.4719    6.0689   26.9062 O.3     1  UNL1        0.0000
   2456 O           2.6955    9.2867   26.8214 O.3     1  UNL1        0.0000
   2457 N           2.1876    2.6978   40.5002 N.pl3  40  UNL40       0.0000
   2458 N           3.1147    2.6694   38.5187 N.pl3  40  UNL40       0.0000
   2459 C           1.1997    3.0207   39.5835 C.2    40  UNL40       0.0000
   2460 C           1.7833    3.0067   38.3411 C.2    40  UNL40       0.0000
   2461 C           4.5703    3.9145   36.9318 C.3    40  UNL40       0.0000
   2462 C           2.0359    2.6890   41.9656 C.3    40  UNL40       0.0000
   2463 C           3.3396    2.4839   39.8315 C.3    40  UNL40       0.0000
   2464 C           4.1268    2.5474   37.4453 C.3    40  UNL40       0.0000
   2465 H           0.1754    3.2110   39.8833 H      40  UNL40       0.0000
   2466 H           1.3536    3.2058   37.3670 H      40  UNL40       0.0000
   2467 H           3.7310    4.4640   36.4857 H      40  UNL40       0.0000
   2468 H           2.4977    3.5907   42.3832 H      40  UNL40       0.0000
   2469 H           5.0113    4.5226   37.7313 H      40  UNL40       0.0000
   2470 H           0.9665    2.6853   42.1994 H      40  UNL40       0.0000
   2471 H           5.3190    3.7750   36.1393 H      40  UNL40       0.0000
   2472 H           3.6735    1.9372   36.6548 H      40  UNL40       0.0000
   2473 H           2.5056    1.7865   42.3767 H      40  UNL40       0.0000
   2474 H           4.2825    2.1931   40.2774 H      40  UNL40       0.0000
   2475 H           4.9566    1.9665   37.8654 H      40  UNL40       0.0000
   2476 N           8.6892   10.9676   43.3080 N.3    40  UNL40       0.0000
   2477 C           6.7256   11.5178   41.3932 C.3    40  UNL40       0.0000
   2478 C           8.8543    8.3402   42.8822 C.3    40  UNL40       0.0000
   2479 O           8.8531   13.0528   41.7480 O.2    40  UNL40       0.0000
   2480 O           7.1532   12.8611   43.5865 O.2    40  UNL40       0.0000
   2481 O          10.8637    9.7812   43.7324 O.2    40  UNL40       0.0000
   2482 O          10.1495   10.0807   41.3301 O.2    40  UNL40       0.0000
   2483 F           5.7654   10.8429   42.0808 F      40  UNL40       0.0000
   2484 F           6.1344   12.5510   40.7297 F      40  UNL40       0.0000
   2485 F           7.2521   10.6793   40.4697 F      40  UNL40       0.0000
   2486 F           9.5721    7.3338   42.3104 F      40  UNL40       0.0000
   2487 F           8.6404    8.0049   44.1870 F      40  UNL40       0.0000
   2488 F           7.6521    8.3841   42.2506 F      40  UNL40       0.0000
   2489 S           7.9932   12.2080   42.5941 S.O2   40  UNL40       0.0000
   2490 S           9.8078    9.9606   42.7404 S.O2   40  UNL40       0.0000
   2491 TI          0.7601   32.6139   11.6264 Ti      1  UNL1        0.0000
   2492 TI         11.8381   35.6766    2.0157 Ti      1  UNL1        0.0000
   2493 TI          5.3050   29.2991    9.7305 Ti      1  UNL1        0.0000
   2494 TI          7.2459   38.9904    3.9073 Ti      1  UNL1        0.0000
   2495 TI          5.5733   39.8788    1.9402 Ti      1  UNL1        0.0000
   2496 TI          6.7763   28.1344   11.6997 Ti      1  UNL1        0.0000
   2497 TI          2.2073   31.3135    9.7273 Ti      1  UNL1        0.0000
   2498 TI         10.1223   36.7203    3.8644 Ti      1  UNL1        0.0000
   2499 H           7.4079   31.9819    7.2504 H       1  UNL1        0.0000
   2500 H           3.7223   26.3120    7.5361 H       1  UNL1        0.0000
   2501 H           8.8718   41.7762    6.1373 H       1  UNL1        0.0000
   2502 H           0.7726   36.6341   11.4582 H       1  UNL1        0.0000
   2503 H          11.6642   31.5465    2.3253 H       1  UNL1        0.0000
   2504 H          -2.9928   31.0014   11.2774 H       1  UNL1        0.0000
   2505 H          15.5106   37.1544    2.2044 H       1  UNL1        0.0000
   2506 H           7.0076   23.9782   11.3952 H       1  UNL1        0.0000
   2507 H           1.6697   38.4949    2.2064 H       1  UNL1        0.0000
   2508 H           8.5472   33.9394    6.1648 H       1  UNL1        0.0000
   2509 H           3.7940   34.2836    7.5507 H       1  UNL1        0.0000
   2510 H           0.0560   28.5447    7.3471 H       1  UNL1        0.0000
   2511 H           6.4390   38.4552    0.0194 H       1  UNL1        0.0000
   2512 H          10.8181   37.1408    0.1902 H       1  UNL1        0.0000
   2513 H           4.1796   30.9741   11.2963 H       1  UNL1        0.0000
   2514 H           8.1778   37.2403    2.3114 H       1  UNL1        0.0000
   2515 H           7.4138   27.9540    6.2520 H       1  UNL1        0.0000
   2516 H           5.0747   40.1422    7.4079 H       1  UNL1        0.0000
   2517 H          -2.2685   34.4237    9.2224 H       1  UNL1        0.0000
   2518 H          14.6744   33.7260    4.4965 H       1  UNL1        0.0000
   2519 H           0.1947   32.7746    6.1091 H       1  UNL1        0.0000
   2520 H           2.6450   42.0674    4.4272 H       1  UNL1        0.0000
   2521 H           3.7488   36.4803    6.6370 H       1  UNL1        0.0000
   2522 H           5.1621   37.2445    5.9402 H       1  UNL1        0.0000
   2523 H           5.4085   43.0965    2.7278 H       1  UNL1        0.0000
   2524 H          11.6281   29.4924    3.5249 H       1  UNL1        0.0000
   2525 H          11.2059   29.9940   10.1515 H       1  UNL1        0.0000
   2526 H           9.8547   29.1862   10.9191 H       1  UNL1        0.0000
   2527 H          13.7302   39.3281    6.4990 H       1  UNL1        0.0000
   2528 H          12.3585   38.5965    5.6902 H       1  UNL1        0.0000
   2529 H          11.8576   35.6867    8.7442 H       1  UNL1        0.0000
   2530 H          11.3620   35.9532    7.0809 H       1  UNL1        0.0000
   2531 H          10.7723   25.3680    9.6981 H       1  UNL1        0.0000
   2532 H           9.4364   26.3604   10.2591 H       1  UNL1        0.0000
   2533 C          12.5101   35.1752    4.8610 C.3     1  UNL1        0.0000
   2534 C          -0.0727   32.9808    8.8074 C.3     1  UNL1        0.0000
   2535 C           7.6716   27.7156    8.8613 C.3     1  UNL1        0.0000
   2536 C           4.7862   40.4218    4.7752 C.2     1  UNL1        0.0000
   2537 C          13.3427   34.6027    5.9293 C.ar    1  UNL1        0.0000
   2538 C          -0.9638   33.5567    7.7630 C.ar    1  UNL1        0.0000
   2539 C           8.5221   27.0596    7.8546 C.ar    1  UNL1        0.0000
   2540 C           3.9403   41.0456    5.8316 C.2     1  UNL1        0.0000
   2541 C          13.0422   34.7921    7.3180 C.ar    1  UNL1        0.0000
   2542 C          -0.6781   33.3545    6.3955 C.ar    1  UNL1        0.0000
   2543 C           9.6085   26.1958    8.2154 C.ar    1  UNL1        0.0000
   2544 C           2.8615   41.8846    5.4760 C.3     1  UNL1        0.0000
   2545 C           4.2371   40.7940    7.1669 C.3     1  UNL1        0.0000
   2546 C           8.2467   27.2951    6.4876 C.ar    1  UNL1        0.0000
   2547 C          14.4809   33.8493    5.5596 C.ar    1  UNL1        0.0000
   2548 C          -2.0760   34.2913    8.1594 C.ar    1  UNL1        0.0000
   2549 C           6.8304   35.2200    6.2519 C.ar    1  UNL1        0.0000
   2550 C           5.5293   33.0350    7.4474 C.ar    1  UNL1        0.0000
   2551 C          10.6214   40.5376    6.1575 C.2     1  UNL1        0.0000
   2552 C           1.9533   27.5173    7.5023 C.ar    1  UNL1        0.0000
   2553 C          11.7767   31.6288    0.1908 C.2     1  UNL1        0.0000
   2554 C           5.5117   43.9915    0.2338 C.2     1  UNL1        0.0000
   2555 C          15.4635   37.0583    0.0647 C.2     1  UNL1        0.0000
   2556 C           1.8710   38.5612    0.0537 C.2     1  UNL1        0.0000
   2557 C           7.5529   36.2992    5.5576 C.3     1  UNL1        0.0000
   2558 C           4.8324   31.8874    8.1001 C.3     1  UNL1        0.0000
   2559 C           9.9483   39.4988    5.3694 C.2     1  UNL1        0.0000
   2560 C           2.5990   28.6085    8.2836 C.3     1  UNL1        0.0000
   2561 C          11.8303   33.1178    0.1940 C.2     1  UNL1        0.0000
   2562 C           5.4933   42.5237    0.1878 C.2     1  UNL1        0.0000
   2563 C          14.1745   36.3493    0.0895 C.2     1  UNL1        0.0000
   2564 C           3.1692   39.2967    0.0903 C.2     1  UNL1        0.0000
   2565 C           5.4606   35.3477    6.6523 C.ar    1  UNL1        0.0000
   2566 C           6.8857   32.9177    7.0745 C.ar    1  UNL1        0.0000
   2567 C           9.9013   41.7109    6.4809 C.3     1  UNL1        0.0000
   2568 C           2.6893   26.3772    7.1992 C.ar    1  UNL1        0.0000
   2569 C          11.6864   30.9621    1.4074 C.2     1  UNL1        0.0000
   2570 C           0.7473   37.2198   12.3740 C.3     1  UNL1        0.0000
   2571 C          16.0417   37.4360    1.2984 C.2     1  UNL1        0.0000
   2572 C          -3.5251   30.7226   12.1852 C.ar    1  UNL1        0.0000
   2573 C          11.9836   40.4040    6.5811 C.3     1  UNL1        0.0000
   2574 C           0.6079   27.6439    7.0949 C.ar    1  UNL1        0.0000
   2575 C           7.5090   34.0010    6.4824 C.ar    1  UNL1        0.0000
   2576 C           4.8359   34.2230    7.2413 C.ar    1  UNL1        0.0000
   2577 C          11.2689   29.9282   12.2030 C.ar    1  UNL1        0.0000
   2578 C           1.2255   38.2070    1.2582 C.2     1  UNL1        0.0000
   2579 C           6.9429   23.4355   12.3339 C.ar    1  UNL1        0.0000
   2580 C           5.4719   44.7167    1.4691 C.2     1  UNL1        0.0000
   2581 N           4.7537   36.5131    6.5206 N.pl3   1  UNL1        0.0000
   2582 N           5.3384   44.1111    2.6860 N.2     1  UNL1        0.0000
   2583 N          10.8008   29.5595   10.9709 N.pl3   1  UNL1        0.0000
   2584 N          12.7308   39.2828    6.3446 N.3     1  UNL1        0.0000
   2585 N          11.9402   35.4646    7.7606 N.pl3   1  UNL1        0.0000
   2586 N           9.9205   25.8790    9.5054 N.pl3   1  UNL1        0.0000
   2587 O          11.4906   35.8975    5.1859 O.3     1  UNL1        0.0000
   2588 O           0.8731   32.2035    8.4358 O.3     1  UNL1        0.0000
   2589 O           7.9449   27.5323   10.1123 O.3     1  UNL1        0.0000
   2590 O           4.4552   40.5900    3.5533 O.2     1  UNL1        0.0000
   2591 O           5.8099   39.7415    5.1545 O.2     1  UNL1        0.0000
   2592 O           6.6967   28.4569    8.4768 O.3     1  UNL1        0.0000
   2593 O          12.8265   34.9451    3.6347 O.3     1  UNL1        0.0000
   2594 O          -0.3021   33.2975   10.0303 O.3     1  UNL1        0.0000
   2595 O          10.1552   35.2679    2.8368 O.3     1  UNL1        0.0000
   2596 O           2.3476   32.8577   10.7223 O.3     1  UNL1        0.0000
   2597 O          11.5684   37.2842    2.7699 O.3     1  UNL1        0.0000
   2598 O           0.8591   30.9093   10.9065 O.3     1  UNL1        0.0000
   2599 O           5.2989   27.7261   10.7292 O.3     1  UNL1        0.0000
   2600 O           7.1013   40.4576    2.8659 O.3     1  UNL1        0.0000
   2601 O           6.5355   29.8374   10.9824 O.3     1  UNL1        0.0000
   2602 O           5.9445   38.2898    2.7081 O.3     1  UNL1        0.0000
   2603 O           8.7965   36.1111    5.2676 O.3     1  UNL1        0.0000
   2604 O           3.5728   31.9672    8.2874 O.3     1  UNL1        0.0000
   2605 O          10.5773   38.4392    5.0430 O.2     1  UNL1        0.0000
   2606 O           1.8710   29.5812    8.6712 O.3     1  UNL1        0.0000
   2607 O           6.9566   26.2409   12.4235 O.3     1  UNL1        0.0000
   2608 O           5.3989   41.8564    1.2759 O.2     1  UNL1        0.0000
   2609 O           8.7520   28.5641   12.3412 O.3     1  UNL1        0.0000
   2610 O           3.7060   39.4620    1.2446 O.2     1  UNL1        0.0000
   2611 O           8.7190   39.6948    5.0158 O.2     1  UNL1        0.0000
   2612 O           3.8463   28.5141    8.5348 O.3     1  UNL1        0.0000
   2613 O           6.9304   37.3775    5.2551 O.3     1  UNL1        0.0000
   2614 O           5.5526   30.8853    8.4424 O.3     1  UNL1        0.0000
   2615 O          13.6546   36.0635    1.2340 O.2     1  UNL1        0.0000
   2616 O          -1.1824   32.2250   12.3569 O.3     1  UNL1        0.0000
   2617 O          11.8842   33.7185    1.3119 O.2     1  UNL1        0.0000
   2618 O           0.7313   34.4609   12.4043 O.2     1  UNL1        0.0000
   2619 O           8.6297   37.7642    2.9974 O.3     1  UNL1        0.0000
   2620 O           3.8082   30.3989   10.6033 O.3     1  UNL1        0.0000
   2621 O          11.0461   36.1939    0.1828 O.3     1  UNL1        0.0000
   2622 O           6.2697   39.4117    0.0980 O.3     1  UNL1        0.0000
   2623 N           5.7618   32.8228   13.7768 N.pl3  40  UNL40       0.0000
   2624 N           6.6889   32.7944   11.7953 N.pl3  40  UNL40       0.0000
   2625 C           4.7739   33.1456   12.8601 C.2    40  UNL40       0.0000
   2626 C           5.3575   33.1316   11.6177 C.2    40  UNL40       0.0000
   2627 C           8.1445   34.0394   10.2084 C.3    40  UNL40       0.0000
   2628 C           5.6101   32.8139   15.2422 C.3    40  UNL40       0.0000
   2629 C           6.9137   32.6088   13.1081 C.3    40  UNL40       0.0000
   2630 C           7.7010   32.6723   10.7219 C.3    40  UNL40       0.0000
   2631 H           3.7496   33.3359   13.1598 H      40  UNL40       0.0000
   2632 H           4.9278   33.3308   10.6436 H      40  UNL40       0.0000
   2633 H           7.3052   34.5889    9.7623 H      40  UNL40       0.0000
   2634 H           6.0719   33.7156   15.6598 H      40  UNL40       0.0000
   2635 H           8.5855   34.6476   11.0079 H      40  UNL40       0.0000
   2636 H           4.5407   32.8103   15.4760 H      40  UNL40       0.0000
   2637 H           8.8932   33.9000    9.4159 H      40  UNL40       0.0000
   2638 H           7.2477   32.0621    9.9313 H      40  UNL40       0.0000
   2639 H           6.0798   31.9115   15.6533 H      40  UNL40       0.0000
   2640 H           7.8567   32.3180   13.5540 H      40  UNL40       0.0000
   2641 H           8.5308   32.0914   11.1420 H      40  UNL40       0.0000
   2642 N          12.2634   41.0925   16.5846 N.3    40  UNL40       0.0000
   2643 C          10.2998   41.6428   14.6698 C.3    40  UNL40       0.0000
   2644 C          12.4285   38.4651   16.1588 C.3    40  UNL40       0.0000
   2645 O          12.4273   43.1777   15.0246 O.2    40  UNL40       0.0000
   2646 O          10.7274   42.9860   16.8631 O.2    40  UNL40       0.0000
   2647 O          14.4378   39.9061   17.0090 O.2    40  UNL40       0.0000
   2648 O          13.7237   40.2056   14.6067 O.2    40  UNL40       0.0000
   2649 F           9.3396   40.9678   15.3574 F      40  UNL40       0.0000
   2650 F           9.7086   42.6759   14.0063 F      40  UNL40       0.0000
   2651 F          10.8263   40.8042   13.7463 F      40  UNL40       0.0000
   2652 F          13.1463   37.4588   15.5870 F      40  UNL40       0.0000
   2653 F          12.2145   38.1299   17.4635 F      40  UNL40       0.0000
   2654 F          11.2263   38.5091   15.5272 F      40  UNL40       0.0000
   2655 S          11.5674   42.3330   15.8707 S.O2   40  UNL40       0.0000
   2656 S          13.3820   40.0855   16.0170 S.O2   40  UNL40       0.0000
   2657 TI         -4.0954   25.1341   24.9874 Ti      1  UNL1        0.0000
   2658 TI          6.9826   28.1969   15.3767 Ti      1  UNL1        0.0000
   2659 TI          0.4495   21.8193   23.0915 Ti      1  UNL1        0.0000
   2660 TI          2.3904   31.5106   17.2683 Ti      1  UNL1        0.0000
   2661 TI          0.7178   32.3991   15.3012 Ti      1  UNL1        0.0000
   2662 TI          1.9207   20.6546   25.0607 Ti      1  UNL1        0.0000
   2663 TI         -2.6482   23.8338   23.0883 Ti      1  UNL1        0.0000
   2664 TI          5.2668   29.2406   17.2254 Ti      1  UNL1        0.0000
   2665 H           2.5524   24.5021   20.6114 H       1  UNL1        0.0000
   2666 H          -1.1332   18.8323   20.8971 H       1  UNL1        0.0000
   2667 H           4.0163   34.2965   19.4983 H       1  UNL1        0.0000
   2668 H          -4.0829   29.1544   24.8192 H       1  UNL1        0.0000
   2669 H           6.8087   24.0668   15.6863 H       1  UNL1        0.0000
   2670 H          -7.8483   23.5217   24.6384 H       1  UNL1        0.0000
   2671 H          10.6551   29.6747   15.5654 H       1  UNL1        0.0000
   2672 H           2.1521   16.4984   24.7562 H       1  UNL1        0.0000
   2673 H          -3.1858   31.0152   15.5674 H       1  UNL1        0.0000
   2674 H           3.6917   26.4597   19.5258 H       1  UNL1        0.0000
   2675 H          -1.0615   26.8038   20.9117 H       1  UNL1        0.0000
   2676 H          -4.7995   21.0650   20.7080 H       1  UNL1        0.0000
   2677 H           1.5834   30.9754   13.3804 H       1  UNL1        0.0000
   2678 H           5.9625   29.6611   13.5512 H       1  UNL1        0.0000
   2679 H          -0.6759   23.4943   24.6573 H       1  UNL1        0.0000
   2680 H           3.3222   29.7605   15.6724 H       1  UNL1        0.0000
   2681 H           2.5583   20.4743   19.6130 H       1  UNL1        0.0000
   2682 H           0.2192   32.6625   20.7689 H       1  UNL1        0.0000
   2683 H          -7.1240   26.9440   22.5834 H       1  UNL1        0.0000
   2684 H           9.8189   26.2463   17.8575 H       1  UNL1        0.0000
   2685 H          -4.6609   25.2948   19.4701 H       1  UNL1        0.0000
   2686 H          -2.2106   34.5876   17.7882 H       1  UNL1        0.0000
   2687 H          -1.1068   29.0006   19.9980 H       1  UNL1        0.0000
   2688 H           0.3066   29.7647   19.3012 H       1  UNL1        0.0000
   2689 H           0.5530   35.6167   16.0888 H       1  UNL1        0.0000
   2690 H           6.7726   22.0127   16.8858 H       1  UNL1        0.0000
   2691 H           6.3504   22.5143   23.5125 H       1  UNL1        0.0000
   2692 H           4.9991   21.7064   24.2801 H       1  UNL1        0.0000
   2693 H           8.8746   31.8484   19.8600 H       1  UNL1        0.0000
   2694 H           7.5030   31.1168   19.0512 H       1  UNL1        0.0000
   2695 H           7.0021   28.2069   22.1052 H       1  UNL1        0.0000
   2696 H           6.5065   28.4735   20.4419 H       1  UNL1        0.0000
   2697 H           5.9167   17.8883   23.0590 H       1  UNL1        0.0000
   2698 H           4.5809   18.8807   23.6201 H       1  UNL1        0.0000
   2699 C           7.6546   27.6954   18.2220 C.3     1  UNL1        0.0000
   2700 C          -4.9283   25.5011   22.1684 C.3     1  UNL1        0.0000
   2701 C           2.8161   20.2359   22.2223 C.3     1  UNL1        0.0000
   2702 C          -0.0693   32.9420   18.1362 C.2     1  UNL1        0.0000
   2703 C           8.4872   27.1230   19.2903 C.ar    1  UNL1        0.0000
   2704 C          -5.8193   26.0769   21.1240 C.ar    1  UNL1        0.0000
   2705 C           3.6665   19.5799   21.2156 C.ar    1  UNL1        0.0000
   2706 C          -0.9152   33.5658   19.1926 C.2     1  UNL1        0.0000
   2707 C           8.1867   27.3124   20.6790 C.ar    1  UNL1        0.0000
   2708 C          -5.5336   25.8747   19.7565 C.ar    1  UNL1        0.0000
   2709 C           4.7529   18.7160   21.5764 C.ar    1  UNL1        0.0000
   2710 C          -1.9941   34.4049   18.8370 C.3     1  UNL1        0.0000
   2711 C          -0.6184   33.3142   20.5279 C.3     1  UNL1        0.0000
   2712 C           3.3912   19.8153   19.8486 C.ar    1  UNL1        0.0000
   2713 C           9.6254   26.3696   18.9206 C.ar    1  UNL1        0.0000
   2714 C          -6.9316   26.8115   21.5204 C.ar    1  UNL1        0.0000
   2715 C           1.9749   27.7402   19.6129 C.ar    1  UNL1        0.0000
   2716 C           0.6738   25.5553   20.8084 C.ar    1  UNL1        0.0000
   2717 C           5.7658   33.0579   19.5185 C.2     1  UNL1        0.0000
   2718 C          -2.9022   20.0376   20.8633 C.ar    1  UNL1        0.0000
   2719 C           6.9212   24.1491   13.5518 C.ar    1  UNL1        0.0000
   2720 C           0.6562   36.5117   13.5948 C.2     1  UNL1        0.0000
   2721 C          10.6080   29.5786   13.4257 C.ar    1  UNL1        0.0000
   2722 C          -2.9845   31.0815   13.4147 C.ar    1  UNL1        0.0000
   2723 C           2.6974   28.8195   18.9186 C.3     1  UNL1        0.0000
   2724 C          -0.0232   24.4076   21.4611 C.3     1  UNL1        0.0000
   2725 C           5.0928   32.0190   18.7304 C.2     1  UNL1        0.0000
   2726 C          -2.2566   21.1288   21.6446 C.3     1  UNL1        0.0000
   2727 C           6.9748   25.6381   13.5550 C.3     1  UNL1        0.0000
   2728 C           0.6378   35.0439   13.5488 C.2     1  UNL1        0.0000
   2729 C           9.3190   28.8695   13.4505 C.3     1  UNL1        0.0000
   2730 C          -1.6863   31.8170   13.4513 C.3     1  UNL1        0.0000
   2731 C           0.6051   27.8680   20.0133 C.ar    1  UNL1        0.0000
   2732 C           2.0301   25.4379   20.4355 C.ar    1  UNL1        0.0000
   2733 C           5.0458   34.2311   19.8419 C.3     1  UNL1        0.0000
   2734 C          -2.1663   18.8974   20.5602 C.ar    1  UNL1        0.0000
   2735 C           6.8309   23.4824   14.7684 C.ar    1  UNL1        0.0000
   2736 C          -4.1082   29.7401   25.7350 C.3     1  UNL1        0.0000
   2737 C          11.1862   29.9563   14.6594 C.ar    1  UNL1        0.0000
   2738 C          -8.3806   23.2428   25.5462 C.ar    1  UNL1        0.0000
   2739 C           7.1281   32.9243   19.9421 C.3     1  UNL1        0.0000
   2740 C          -4.2476   20.1641   20.4559 C.ar    1  UNL1        0.0000
   2741 C           2.6535   26.5213   19.8434 C.ar    1  UNL1        0.0000
   2742 C          -0.0196   26.7433   20.6023 C.ar    1  UNL1        0.0000
   2743 C           6.4134   22.4484   25.5640 C.ar    1  UNL1        0.0000
   2744 C          -3.6300   30.7273   14.6192 C.ar    1  UNL1        0.0000
   2745 C           2.0874   15.9557   25.6949 C.ar    1  UNL1        0.0000
   2746 C           0.6164   37.2370   14.8301 C.2     1  UNL1        0.0000
   2747 N          -0.1018   29.0334   19.8816 N.pl3   1  UNL1        0.0000
   2748 N           0.4828   36.6313   16.0470 N.2     1  UNL1        0.0000
   2749 N           5.9452   22.0797   24.3319 N.pl3   1  UNL1        0.0000
   2750 N           7.8753   31.8030   19.7056 N.3     1  UNL1        0.0000
   2751 N           7.0847   27.9849   21.1216 N.pl3   1  UNL1        0.0000
   2752 N           5.0650   18.3993   22.8664 N.pl3   1  UNL1        0.0000
   2753 O           6.6350   28.4177   18.5469 O.3     1  UNL1        0.0000
   2754 O          -3.9824   24.7238   21.7968 O.3     1  UNL1        0.0000
   2755 O           3.0894   20.0526   23.4733 O.3     1  UNL1        0.0000
   2756 O          -0.4003   33.1102   16.9143 O.2     1  UNL1        0.0000
   2757 O           0.9543   32.2618   18.5155 O.2     1  UNL1        0.0000
   2758 O           1.8412   20.9772   21.8378 O.3     1  UNL1        0.0000
   2759 O           7.9710   27.4654   16.9957 O.3     1  UNL1        0.0000
   2760 O          -5.1576   25.8177   23.3913 O.3     1  UNL1        0.0000
   2761 O           5.2996   27.7882   16.1978 O.3     1  UNL1        0.0000
   2762 O          -2.5079   25.3779   24.0833 O.3     1  UNL1        0.0000
   2763 O           6.7129   29.8045   16.1309 O.3     1  UNL1        0.0000
   2764 O          -3.9964   23.4296   24.2675 O.3     1  UNL1        0.0000
   2765 O           0.4434   20.2464   24.0902 O.3     1  UNL1        0.0000
   2766 O           2.2458   32.9778   16.2269 O.3     1  UNL1        0.0000
   2767 O           1.6800   22.3576   24.3434 O.3     1  UNL1        0.0000
   2768 O           1.0890   30.8101   16.0691 O.3     1  UNL1        0.0000
   2769 O           3.9410   28.6314   18.6286 O.3     1  UNL1        0.0000
   2770 O          -1.2827   24.4875   21.6484 O.3     1  UNL1        0.0000
   2771 O           5.7218   30.9595   18.4039 O.2     1  UNL1        0.0000
   2772 O          -2.9846   22.1014   22.0322 O.3     1  UNL1        0.0000
   2773 O           2.1011   18.7611   25.7845 O.3     1  UNL1        0.0000
   2774 O           0.5433   34.3767   14.6369 O.2     1  UNL1        0.0000
   2775 O           3.8965   21.0843   25.7022 O.3     1  UNL1        0.0000
   2776 O          -1.1495   31.9822   14.6056 O.3     1  UNL1        0.0000
   2777 O           3.8635   32.2151   18.3768 O.2     1  UNL1        0.0000
   2778 O          -1.0092   21.0343   21.8958 O.3     1  UNL1        0.0000
   2779 O           2.0748   29.8978   18.6160 O.3     1  UNL1        0.0000
   2780 O           0.6971   23.4055   21.8034 O.3     1  UNL1        0.0000
   2781 O           8.7990   28.5837   14.5949 O.3     1  UNL1        0.0000
   2782 O          -6.0379   24.7453   25.7179 O.3     1  UNL1        0.0000
   2783 O           7.0286   26.2387   14.6729 O.3     1  UNL1        0.0000
   2784 O          -4.1242   26.9812   25.7653 O.2     1  UNL1        0.0000
   2785 O           3.7741   30.2844   16.3584 O.3     1  UNL1        0.0000
   2786 O          -1.0474   22.9192   23.9643 O.3     1  UNL1        0.0000
   2787 O           6.1906   28.7141   13.5438 O.3     1  UNL1        0.0000
   2788 O           1.4142   31.9319   13.4590 O.3     1  UNL1        0.0000
   2789 N           0.9062   25.3430   27.1378 N.pl3  40  UNL40       0.0000
   2790 N           1.8334   25.3146   25.1563 N.pl3  40  UNL40       0.0000
   2791 C          -0.0817   25.6659   26.2211 C.2    40  UNL40       0.0000
   2792 C           0.5020   25.6519   24.9787 C.2    40  UNL40       0.0000
   2793 C           3.2889   26.5597   23.5694 C.3    40  UNL40       0.0000
   2794 C           0.7546   25.3342   28.6032 C.3    40  UNL40       0.0000
   2795 C           2.0582   25.1291   26.4691 C.3    40  UNL40       0.0000
   2796 C           2.8455   25.1926   24.0829 C.3    40  UNL40       0.0000
   2797 H          -1.1060   25.8562   26.5208 H      40  UNL40       0.0000
   2798 H           0.0723   25.8510   24.0046 H      40  UNL40       0.0000
   2799 H           2.4497   27.1092   23.1233 H      40  UNL40       0.0000
   2800 H           1.2163   26.2359   29.0208 H      40  UNL40       0.0000
   2801 H           3.7299   27.1678   24.3689 H      40  UNL40       0.0000
   2802 H          -0.3149   25.3305   28.8370 H      40  UNL40       0.0000
   2803 H           4.0377   26.4202   22.7769 H      40  UNL40       0.0000
   2804 H           2.3921   24.5824   23.2923 H      40  UNL40       0.0000
   2805 H           1.2243   24.4317   29.0143 H      40  UNL40       0.0000
   2806 H           3.0012   24.8383   26.9150 H      40  UNL40       0.0000
   2807 H           3.6753   24.6117   24.5030 H      40  UNL40       0.0000
   2808 N           7.4079   33.6128   29.9456 N.3    40  UNL40       0.0000
   2809 C           5.4443   34.1630   28.0308 C.3    40  UNL40       0.0000
   2810 C           7.5730   30.9854   29.5198 C.3    40  UNL40       0.0000
   2811 O           7.5717   35.6980   28.3856 O.2    40  UNL40       0.0000
   2812 O           5.8719   35.5063   30.2241 O.2    40  UNL40       0.0000
   2813 O           9.5823   32.4264   30.3700 O.2    40  UNL40       0.0000
   2814 O           8.8682   32.7259   27.9677 O.2    40  UNL40       0.0000
   2815 F           4.4840   33.4881   28.7184 F      40  UNL40       0.0000
   2816 F           4.8531   35.1962   27.3673 F      40  UNL40       0.0000
   2817 F           5.9708   33.3245   27.1073 F      40  UNL40       0.0000
   2818 F           8.2907   29.9790   28.9480 F      40  UNL40       0.0000
   2819 F           7.3590   30.6501   30.8245 F      40  UNL40       0.0000
   2820 F           6.3707   31.0293   28.8882 F      40  UNL40       0.0000
   2821 S           6.7119   34.8532   29.2317 S.O2   40  UNL40       0.0000
   2822 S           8.5264   32.6058   29.3780 S.O2   40  UNL40       0.0000
   2823 TI         -8.9509   17.6544   38.3484 Ti      1  UNL1        0.0000
   2824 TI          2.1271   20.7171   28.7377 Ti      1  UNL1        0.0000
   2825 TI         -4.4060   14.3396   36.4525 Ti      1  UNL1        0.0000
   2826 TI         -2.4652   24.0309   30.6293 Ti      1  UNL1        0.0000
   2827 TI         -4.1378   24.9193   28.6622 Ti      1  UNL1        0.0000
   2828 TI         -2.9348   13.1749   38.4217 Ti      1  UNL1        0.0000
   2829 TI         -7.5037   16.3541   36.4493 Ti      1  UNL1        0.0000
   2830 TI          0.4112   21.7609   30.5864 Ti      1  UNL1        0.0000
   2831 H          -2.3031   17.0224   33.9724 H       1  UNL1        0.0000
   2832 H          -5.9887   11.3525   34.2581 H       1  UNL1        0.0000
   2833 H          -0.8392   26.8167   32.8593 H       1  UNL1        0.0000
   2834 H          -8.9385   21.6746   38.1802 H      40  UNL40       0.0000
   2835 H           1.9532   16.5871   29.0473 H       1  UNL1        0.0000
   2836 H         -12.7039   16.0419   37.9994 H      10  UNL10       0.0000
   2837 H           5.7996   22.1949   28.9264 H       1  UNL1        0.0000
   2838 H          -2.7035    9.0187   38.1172 H      40  UNL40       0.0000
   2839 H          -8.0414   23.5354   28.9284 H       1  UNL1        0.0000
   2840 H          -1.1638   18.9799   32.8868 H       1  UNL1        0.0000
   2841 H          -5.9171   19.3241   34.2727 H       1  UNL1        0.0000
   2842 H          -9.6551   13.5853   34.0690 H       1  UNL1        0.0000
   2843 H          -3.2721   23.4957   26.7414 H       1  UNL1        0.0000
   2844 H           1.1070   22.1813   26.9122 H       1  UNL1        0.0000
   2845 H          -5.5315   16.0146   38.0183 H       1  UNL1        0.0000
   2846 H          -1.5333   22.2808   29.0334 H       1  UNL1        0.0000
   2847 H          -2.2972   12.9946   32.9740 H       1  UNL1        0.0000
   2848 H          -4.6363   25.1827   34.1299 H       1  UNL1        0.0000
   2849 H         -11.9796   19.4642   35.9444 H       1  UNL1        0.0000
   2850 H           4.9634   18.7666   31.2185 H       1  UNL1        0.0000
   2851 H          -9.5164   17.8151   32.8311 H       1  UNL1        0.0000
   2852 H          -7.0661   27.1079   31.1492 H       1  UNL1        0.0000
   2853 H          -5.9623   21.5208   33.3590 H       1  UNL1        0.0000
   2854 H          -4.5489   22.2850   32.6622 H       1  UNL1        0.0000
   2855 H          -4.3026   28.1370   29.4498 H       1  UNL1        0.0000
   2856 H           1.9170   14.5329   30.2468 H       1  UNL1        0.0000
   2857 H           1.4948   15.0345   36.8735 H      40  UNL40       0.0000
   2858 H           0.1436   14.2267   37.6411 H      40  UNL40       0.0000
   2859 H           4.0191   24.3686   33.2210 H       1  UNL1        0.0000
   2860 H           2.6475   23.6370   32.4122 H       1  UNL1        0.0000
   2861 H           2.1465   20.7272   35.4662 H       1  UNL1        0.0000
   2862 H           1.6509   20.9937   33.8029 H       1  UNL1        0.0000
   2863 H           1.0612   10.4085   36.4200 H       1  UNL1        0.0000
   2864 H          -0.2746   11.4010   36.9811 H       1  UNL1        0.0000
   2865 C           2.7991   20.2157   31.5830 C.3     1  UNL1        0.0000
   2866 C          -9.7838   18.0214   35.5294 C.3     1  UNL1        0.0000
   2867 C          -2.0394   12.7562   35.5833 C.3     1  UNL1        0.0000
   2868 C          -4.9248   25.4623   31.4972 C.2     1  UNL1        0.0000
   2869 C           3.6317   19.6433   32.6513 C.ar    1  UNL1        0.0000
   2870 C         -10.6749   18.5972   34.4850 C.ar    1  UNL1        0.0000
   2871 C          -1.1890   12.1001   34.5766 C.ar    1  UNL1        0.0000
   2872 C          -5.7707   26.0861   32.5536 C.2     1  UNL1        0.0000
   2873 C           3.3312   19.8326   34.0400 C.ar    1  UNL1        0.0000
   2874 C         -10.3891   18.3950   33.1175 C.ar    1  UNL1        0.0000
   2875 C          -0.1026   11.2363   34.9374 C.ar    1  UNL1        0.0000
   2876 C          -6.8496   26.9251   32.1980 C.3     1  UNL1        0.0000
   2877 C          -5.4740   25.8345   33.8888 C.3     1  UNL1        0.0000
   2878 C          -1.4643   12.3356   33.2096 C.ar    1  UNL1        0.0000
   2879 C           4.7698   18.8898   32.2816 C.ar    1  UNL1        0.0000
   2880 C         -11.7871   19.3318   34.8814 C.ar    1  UNL1        0.0000
   2881 C          -2.8807   20.2605   32.9739 C.ar    1  UNL1        0.0000
   2882 C          -4.1817   18.0756   34.1694 C.ar    1  UNL1        0.0000
   2883 C           0.9103   25.5781   32.8795 C.2     1  UNL1        0.0000
   2884 C          -7.7577   12.5578   34.2243 C.ar    1  UNL1        0.0000
   2885 C           2.0656   16.6694   26.9128 C.ar    1  UNL1        0.0000
   2886 C          -4.1993   29.0320   26.9558 C.2     1  UNL1        0.0000
   2887 C           5.7524   22.0989   26.7867 C.ar    1  UNL1        0.0000
   2888 C          -7.8400   23.6017   26.7757 C.ar    1  UNL1        0.0000
   2889 C          -2.1582   21.3398   32.2796 C.3     1  UNL1        0.0000
   2890 C          -4.8787   16.9279   34.8221 C.3     1  UNL1        0.0000
   2891 C           0.2373   24.5393   32.0914 C.2     1  UNL1        0.0000
   2892 C          -7.1121   13.6490   35.0056 C.3     1  UNL1        0.0000
   2893 C           2.1193   18.1583   26.9160 C.3     1  UNL1        0.0000
   2894 C          -4.2178   27.5642   26.9098 C.2     1  UNL1        0.0000
   2895 C           4.4634   21.3898   26.8115 C.3     1  UNL1        0.0000
   2896 C          -6.5418   24.3372   26.8122 C.3     1  UNL1        0.0000
   2897 C          -4.2504   20.3883   33.3743 C.ar    1  UNL1        0.0000
   2898 C          -2.8254   17.9582   33.7965 C.ar    1  UNL1        0.0000
   2899 C           0.1903   26.7514   33.2029 C.3     1  UNL1        0.0000
   2900 C          -7.0218   11.4177   33.9212 C.ar    1  UNL1        0.0000
   2901 C           1.9753   16.0026   28.1294 C.ar    1  UNL1        0.0000
   2902 C          -8.9637   22.2603   39.0960 C.3    41  UNL41       0.0000
   2903 C           6.3307   22.4765   28.0204 C.ar    1  UNL1        0.0000
   2904 C         -13.2362   15.7631   38.9072 C.2    10  UNL10       0.0000
   2905 C           2.2726   25.4445   33.3031 C.3     1  UNL1        0.0000
   2906 C          -9.1031   12.6844   33.8169 C.ar    1  UNL1        0.0000
   2907 C          -2.2020   19.0415   33.2044 C.ar    1  UNL1        0.0000
   2908 C          -4.8752   19.2635   33.9633 C.ar    1  UNL1        0.0000
   2909 C           1.5578   14.9687   38.9250 C.2    40  UNL40       0.0000
   2910 C          -8.4855   23.2475   27.9801 C.ar    1  UNL1        0.0000
   2911 C          -2.7681    8.4760   39.0559 C.2    40  UNL40       0.0000
   2912 C          -4.2391   29.7573   28.1911 C.2     1  UNL1        0.0000
   2913 N          -4.9573   21.5536   33.2426 N.pl3   1  UNL1        0.0000
   2914 N          -4.3727   29.1516   29.4080 N.2     1  UNL1        0.0000
   2915 N           1.0897   14.6000   37.6929 N.pl3  40  UNL40       0.0000
   2916 N           3.0198   24.3233   33.0666 N.3     1  UNL1        0.0000
   2917 N           2.2292   20.5052   34.4826 N.pl3   1  UNL1        0.0000
   2918 N           0.2095   10.9195   36.2274 N.pl3   1  UNL1        0.0000
   2919 O           1.7795   20.9380   31.9079 O.3     1  UNL1        0.0000
   2920 O          -8.8379   17.2440   35.1578 O.3     1  UNL1        0.0000
   2921 O          -1.7662   12.5728   36.8343 O.3     1  UNL1        0.0000
   2922 O          -5.2558   25.6305   30.2753 O.2     1  UNL1        0.0000
   2923 O          -3.9012   24.7820   31.8765 O.2     1  UNL1        0.0000
   2924 O          -3.0143   13.4975   35.1988 O.3     1  UNL1        0.0000
   2925 O           3.1154   19.9856   30.3567 O.3     1  UNL1        0.0000
   2926 O         -10.0131   18.3380   36.7523 O.3     1  UNL1        0.0000
   2927 O           0.4441   20.3084   29.5588 O.3     1  UNL1        0.0000
   2928 O          -7.3635   17.8982   37.4443 O.3     1  UNL1        0.0000
   2929 O           1.8574   22.3247   29.4919 O.3     1  UNL1        0.0000
   2930 O          -8.8520   15.9498   37.6285 O.3     1  UNL1        0.0000
   2931 O          -4.4121   12.7666   37.4512 O.3     1  UNL1        0.0000
   2932 O          -2.6097   25.4981   29.5879 O.3     1  UNL1        0.0000
   2933 O          -3.1755   14.8779   37.7044 O.3     1  UNL1        0.0000
   2934 O          -3.7665   23.3304   29.4301 O.3     1  UNL1        0.0000
   2935 O          -0.9146   21.1517   31.9896 O.3     1  UNL1        0.0000
   2936 O          -6.1382   17.0078   35.0094 O.3     1  UNL1        0.0000
   2937 O           0.8663   23.4797   31.7649 O.2     1  UNL1        0.0000
   2938 O          -7.8401   14.6217   35.3932 O.3     1  UNL1        0.0000
   2939 O          -2.7544   11.2814   39.1455 O.3     1  UNL1        0.0000
   2940 O          -4.3122   26.8970   27.9979 O.2     1  UNL1        0.0000
   2941 O          -0.9590   13.6046   39.0632 O.3     1  UNL1        0.0000
   2942 O          -6.0050   24.5025   27.9666 O.3     1  UNL1        0.0000
   2943 O          -0.9920   24.7353   31.7378 O.2     1  UNL1        0.0000
   2944 O          -5.8647   13.5546   35.2568 O.3     1  UNL1        0.0000
   2945 O          -2.7807   22.4180   31.9770 O.3     1  UNL1        0.0000
   2946 O          -4.1584   15.9258   35.1644 O.3     1  UNL1        0.0000
   2947 O           3.9435   21.1040   27.9559 O.3     1  UNL1        0.0000
   2948 O         -10.8935   17.2656   39.0789 O.3     1  UNL1        0.0000
   2949 O           2.1731   18.7590   28.0339 O.3     1  UNL1        0.0000
   2950 O          -8.9798   19.5014   39.1263 O.3     1  UNL1        0.0000
   2951 O          -1.0814   22.8047   29.7194 O.3     1  UNL1        0.0000
   2952 O          -5.9029   15.4395   37.3253 O.3     1  UNL1        0.0000
   2953 O           1.3351   21.2344   26.9048 O.3     1  UNL1        0.0000
   2954 O          -3.4414   24.4522   26.8200 O.3     1  UNL1        0.0000
   2955 N          -3.9493   17.8633   40.4988 N.pl3  40  UNL40       0.0000
   2956 N          -3.0222   17.8349   38.5173 N.pl3  40  UNL40       0.0000
   2957 C          -4.9372   18.1861   39.5821 C.2    40  UNL40       0.0000
   2958 C          -4.3536   18.1721   38.3397 C.2    40  UNL40       0.0000
   2959 C          -1.5666   19.0799   36.9304 C.3    40  UNL40       0.0000
   2960 C          -4.1009   17.8545   41.9642 C.3    40  UNL40       0.0000
   2961 C          -2.7973   17.6493   39.8301 C.3    40  UNL40       0.0000
   2962 C          -2.0100   17.7128   37.4438 C.3    40  UNL40       0.0000
   2963 H          -5.9615   18.3764   39.8818 H      40  UNL40       0.0000
   2964 H          -4.7833   18.3713   37.3656 H      40  UNL40       0.0000
   2965 H          -2.4059   19.6295   36.4843 H      40  UNL40       0.0000
   2966 H          -3.6392   18.7562   42.3818 H      40  UNL40       0.0000
   2967 H          -1.1256   19.6881   37.7299 H      40  UNL40       0.0000
   2968 H          -5.1704   17.8508   42.1980 H      40  UNL40       0.0000
   2969 H          -0.8179   18.9405   36.1379 H      40  UNL40       0.0000
   2970 H          -2.4634   17.1026   36.6533 H      40  UNL40       0.0000
   2971 H          -3.6312   16.9520   42.3753 H      40  UNL40       0.0000
   2972 H          -1.8543   17.3585   40.2760 H      40  UNL40       0.0000
   2973 H          -1.1803   17.1319   37.8640 H      40  UNL40       0.0000
   2974 N           2.5524   26.1331   43.3066 N.3    40  UNL40       0.0000
   2975 C           0.5888   26.6833   41.3918 C.3    40  UNL40       0.0000
   2976 C           2.7175   23.5056   42.8808 C.3    40  UNL40       0.0000
   2977 O           2.7162   28.2182   41.7466 O.2    40  UNL40       0.0000
   2978 O           1.0163   28.0265   43.5851 O.2    40  UNL40       0.0000
   2979 O           4.7268   24.9466   43.7310 O.2    40  UNL40       0.0000
   2980 O           4.0127   25.2462   41.3287 O.2    40  UNL40       0.0000
   2981 F          -0.3715   26.0083   42.0794 F      40  UNL40       0.0000
   2982 F          -0.0025   27.7164   40.7283 F      40  UNL40       0.0000
   2983 F           1.1152   25.8447   40.4683 F      40  UNL40       0.0000
   2984 F           3.4352   22.4993   42.3090 F      40  UNL40       0.0000
   2985 F           2.5035   23.1704   44.1855 F      40  UNL40       0.0000
   2986 F           1.5152   23.5496   42.2492 F      40  UNL40       0.0000
   2987 S           1.8563   27.3735   42.5927 S.O2   40  UNL40       0.0000
   2988 S           3.6709   25.1261   42.7390 S.O2   40  UNL40       0.0000
   2989 TI         29.0376    2.2169   11.7349 Ti      1  UNL1        0.0000
   2990 TI         40.1156    5.2796    2.1242 Ti      1  UNL1        0.0000
   2991 TI         33.5825   -1.0979    9.8390 Ti      1  UNL1        0.0000
   2992 TI         35.5234    8.5934    4.0158 Ti      1  UNL1        0.0000
   2993 TI         33.8508    9.4818    2.0487 Ti      1  UNL1        0.0000
   2994 TI         35.0537   -2.2626   11.8082 Ti      1  UNL1        0.0000
   2995 TI         30.4848    0.9166    9.8358 Ti      1  UNL1        0.0000
   2996 TI         38.3998    6.3234    3.9729 Ti      1  UNL1        0.0000
   2997 H          35.6854    1.5849    7.3589 H       1  UNL1        0.0000
   2998 H          31.9998   -4.0850    7.6446 H       1  UNL1        0.0000
   2999 H          37.1493   11.3792    6.2458 H       1  UNL1        0.0000
   3000 H          29.0501    6.2372   11.5667 H       1  UNL1        0.0000
   3001 H          39.9417    1.1496    2.4338 H       1  UNL1        0.0000
   3002 H          25.2847    0.6044   11.3860 H       1  UNL1        0.0000
   3003 H          43.7881    6.7574    2.3130 H       1  UNL1        0.0000
   3004 H          35.2851   -6.4188   11.5037 H       1  UNL1        0.0000
   3005 H          29.9472    8.0979    2.3149 H       1  UNL1        0.0000
   3006 H          36.8247    3.5424    6.2733 H       1  UNL1        0.0000
   3007 H          32.0715    3.8866    7.6593 H       1  UNL1        0.0000
   3008 H          28.3335   -1.8522    7.4556 H       1  UNL1        0.0000
   3009 H          34.7164    8.0582    0.1279 H       1  UNL1        0.0000
   3010 H          39.0956    6.7438    0.2987 H       1  UNL1        0.0000
   3011 H          32.4571    0.5771   11.4048 H       1  UNL1        0.0000
   3012 H          36.4553    6.8433    2.4199 H       1  UNL1        0.0000
   3013 H          35.6913   -2.4429    6.3605 H       1  UNL1        0.0000
   3014 H          33.3522    9.7452    7.5164 H       1  UNL1        0.0000
   3015 H          26.0090    4.0267    9.3309 H       1  UNL1        0.0000
   3016 H          42.9519    3.3291    4.6050 H       1  UNL1        0.0000
   3017 H          28.4722    2.3776    6.2176 H       1  UNL1        0.0000
   3018 H          30.9225   11.6704    4.5357 H       1  UNL1        0.0000
   3019 H          32.0263    6.0834    6.7456 H       1  UNL1        0.0000
   3020 H          33.4396    6.8475    6.0487 H       1  UNL1        0.0000
   3021 H          33.6860   12.6995    2.8364 H       1  UNL1        0.0000
   3022 H          39.9056   -0.9046    3.6334 H      42  UNL42       0.0000
   3023 H          39.4834   -0.4030   10.2600 H       1  UNL1        0.0000
   3024 H          38.1322   -1.2108   11.0276 H       1  UNL1        0.0000
   3025 H          42.0076    8.9311    6.6075 H       1  UNL1        0.0000
   3026 H          40.6360    8.1995    5.7987 H       1  UNL1        0.0000
   3027 H          40.1351    5.2897    8.8527 H       1  UNL1        0.0000
   3028 H          39.6395    5.5562    7.1894 H       1  UNL1        0.0000
   3029 H          39.0497   -5.0289    9.8066 H       1  UNL1        0.0000
   3030 H          37.7139   -4.0365   10.3676 H       1  UNL1        0.0000
   3031 C          40.7876    4.7782    4.9696 C.2     1  UNL1        0.0000
   3032 C          28.2048    2.5839    8.9159 C.3     1  UNL1        0.0000
   3033 C          35.9491   -2.6813    8.9698 C.2     1  UNL1        0.0000
   3034 C          33.0637   10.0248    4.8837 C.3     1  UNL1        0.0000
   3035 C          41.6202    4.2058    6.0379 C.2     1  UNL1        0.0000
   3036 C          27.3137    3.1597    7.8716 C.ar    1  UNL1        0.0000
   3037 C          36.7996   -3.3374    7.9632 C.2     1  UNL1        0.0000
   3038 C          32.2178   10.6486    5.9401 C.ar    1  UNL1        0.0000
   3039 C          41.3197    4.3952    7.4265 C.3     1  UNL1        0.0000
   3040 C          27.5994    2.9575    6.5040 C.ar    1  UNL1        0.0000
   3041 C          37.8860   -4.2012    8.3240 C.3     1  UNL1        0.0000
   3042 C          31.1389   11.4876    5.5845 C.ar    1  UNL1        0.0000
   3043 C          32.5146   10.3970    7.2754 C.ar    1  UNL1        0.0000
   3044 C          36.5242   -3.1019    6.5961 C.3     1  UNL1        0.0000
   3045 C          42.7584    3.4523    5.6681 C.3     1  UNL1        0.0000
   3046 C          26.2014    3.8943    8.2680 C.ar    1  UNL1        0.0000
   3047 C          35.1079    4.8230    6.3605 C.ar    1  UNL1        0.0000
   3048 C          33.8068    2.6381    7.5559 C.ar    1  UNL1        0.0000
   3049 C          38.8989   10.1406    6.2660 C.2     1  UNL1        0.0000
   3050 C          30.2308   -2.8797    7.6108 C.2     1  UNL1        0.0000
   3051 C          40.0542    1.2319    0.2993 C.2     1  UNL1        0.0000
   3052 C          33.7892   13.5945    0.3424 C.2     1  UNL1        0.0000
   3053 C          43.7410    6.6614    0.1732 C.2     1  UNL1        0.0000
   3054 C          30.1485    8.1642    0.1622 C.2     1  UNL1        0.0000
   3055 C          35.8304    5.9023    5.6661 C.3     1  UNL1        0.0000
   3056 C          33.1099    1.4904    8.2086 C.3     1  UNL1        0.0000
   3057 C          38.2258    9.1018    5.4779 C.2     1  UNL1        0.0000
   3058 C          30.8765   -1.7885    8.3921 C.2     1  UNL1        0.0000
   3059 C          40.1078    2.7208    0.3025 C.2     1  UNL1        0.0000
   3060 C          33.7708   12.1267    0.2963 C.2     1  UNL1        0.0000
   3061 C          42.4520    5.9523    0.1980 C.2     1  UNL1        0.0000
   3062 C          31.4467    8.8997    0.1988 C.2     1  UNL1        0.0000
   3063 C          33.7381    4.9508    6.7608 C.ar    1  UNL1        0.0000
   3064 C          35.1632    2.5207    7.1831 C.ar    1  UNL1        0.0000
   3065 C          38.1788   11.3139    6.5894 C.3     1  UNL1        0.0000
   3066 C          30.9668   -4.0198    7.3077 C.3     1  UNL1        0.0000
   3067 C          39.9639    0.5651    1.5159 C.3     1  UNL1        0.0000
   3068 C          29.0248    6.8228   12.4826 C.ar    1  UNL1        0.0000
   3069 C          44.3192    7.0390    1.4069 C.3     1  UNL1        0.0000
   3070 C          24.7524    0.3256   12.2937 C.ar    1  UNL1        0.0000
   3071 C          40.2611   10.0070    6.6896 C.3     1  UNL1        0.0000
   3072 C          28.8854   -2.7531    7.2035 C.3     1  UNL1        0.0000
   3073 C          35.7865    3.6040    6.5910 C.ar    1  UNL1        0.0000
   3074 C          33.1134    3.8260    7.3498 C.ar    1  UNL1        0.0000
   3075 C          39.5464   -0.4688   12.3115 C.3     1  UNL1        0.0000
   3076 C          29.5030    7.8100    1.3667 C.2     1  UNL1        0.0000
   3077 C          35.2204   -6.9615   12.4424 C.3     1  UNL1        0.0000
   3078 C          33.7494   14.3198    1.5776 C.2     1  UNL1        0.0000
   3079 N          33.0312    6.1161    6.6291 N.pl3   1  UNL1        0.0000
   3080 N          33.6159   13.7141    2.7945 N.pl3   1  UNL1        0.0000
   3081 N          39.0783   -0.8375   11.0795 N.3     1  UNL1        0.0000
   3082 N          41.0083    8.8858    6.4531 N.3     1  UNL1        0.0000
   3083 N          40.2177    5.0677    7.8691 N.3     1  UNL1        0.0000
   3084 N          38.1980   -4.5180    9.6139 N.3     1  UNL1        0.0000
   3085 O          39.7680    5.5005    5.2945 O.2     1  UNL1        0.0000
   3086 O          29.1506    1.8065    8.5443 O.3     1  UNL1        0.0000
   3087 O          36.2224   -2.8647   10.2208 O.2     1  UNL1        0.0000
   3088 O          32.7327   10.1930    3.6618 O.3     1  UNL1        0.0000
   3089 O          34.0874    9.3445    5.2631 O.3     1  UNL1        0.0000
   3090 O          34.9742   -1.9400    8.5853 O.2     1  UNL1        0.0000
   3091 O          41.1040    4.5481    3.7432 O.2     1  UNL1        0.0000
   3092 O          27.9754    2.9005   10.1388 O.3     1  UNL1        0.0000
   3093 O          38.4327    4.8709    2.9453 O.3     1  UNL1        0.0000
   3094 O          30.6251    2.4607   10.8308 O.3     1  UNL1        0.0000
   3095 O          39.8459    6.8872    2.8784 O.3     1  UNL1        0.0000
   3096 O          29.1366    0.5123   11.0150 O.3     1  UNL1        0.0000
   3097 O          33.5764   -2.6709   10.8378 O.3     1  UNL1        0.0000
   3098 O          35.3788   10.0606    2.9745 O.3     1  UNL1        0.0000
   3099 O          34.8130   -0.5596   11.0909 O.3     1  UNL1        0.0000
   3100 O          34.2220    7.8929    2.8166 O.3     1  UNL1        0.0000
   3101 O          37.0740    5.7142    5.3762 O.3     1  UNL1        0.0000
   3102 O          31.8503    1.5703    8.3959 O.3     1  UNL1        0.0000
   3103 O          38.8548    8.0422    5.1515 O.2     1  UNL1        0.0000
   3104 O          30.1485   -0.8158    8.7797 O.2     1  UNL1        0.0000
   3105 O          35.2341   -4.1561   12.5321 O.2     1  UNL1        0.0000
   3106 O          33.6764   11.4595    1.3845 O.2     1  UNL1        0.0000
   3107 O          37.0295   -1.8329   12.4497 O.2     1  UNL1        0.0000
   3108 O          31.9835    9.0650    1.3531 O.2     1  UNL1        0.0000
   3109 O          36.9965    9.2978    5.1243 O.2     1  UNL1        0.0000
   3110 O          32.1238   -1.8829    8.6433 O.2     1  UNL1        0.0000
   3111 O          35.2079    6.9805    5.3636 O.3     1  UNL1        0.0000
   3112 O          33.8301    0.4883    8.5509 O.3     1  UNL1        0.0000
   3113 O          41.9320    5.6665    1.3425 O.2     1  UNL1        0.0000
   3114 O          27.0951    1.8281   12.4654 O.3     1  UNL1        0.0000
   3115 O          40.1617    3.3215    1.4204 O.2     1  UNL1        0.0000
   3116 O          29.0088    4.0639   12.5128 O.3     1  UNL1        0.0000
   3117 O          36.9072    7.3672    3.1059 O.3     1  UNL1        0.0000
   3118 O          32.0857    0.0020   10.7118 O.3     1  UNL1        0.0000
   3119 O          39.3236    5.7969    0.2913 O.3     1  UNL1        0.0000
   3120 O          34.5472    9.0147    0.2065 O.3     1  UNL1        0.0000
   3121 N          34.0393    2.4258   13.8853 N.pl3  40  UNL40       0.0000
   3122 N          34.9664    2.3974   11.9038 N.pl3  40  UNL40       0.0000
   3123 C          33.0514    2.7486   12.9687 C.2    40  UNL40       0.0000
   3124 C          33.6350    2.7346   11.7262 C.2    40  UNL40       0.0000
   3125 C          36.4220    3.6424   10.3169 C.3    40  UNL40       0.0000
   3126 C          33.8876    2.4170   15.3508 C.3    40  UNL40       0.0000
   3127 C          35.1912    2.2118   13.2166 C.3    40  UNL40       0.0000
   3128 C          35.9785    2.2754   10.8304 C.3    40  UNL40       0.0000
   3129 H          32.0271    2.9389   13.2684 H      40  UNL40       0.0000
   3130 H          33.2053    2.9338   10.7521 H      40  UNL40       0.0000
   3131 H          35.5827    4.1920    9.8708 H      40  UNL40       0.0000
   3132 H          34.3493    3.3187   15.7683 H      40  UNL40       0.0000
   3133 H          36.8630    4.2506   11.1164 H      40  UNL40       0.0000
   3134 H          32.8181    2.4133   15.5845 H      40  UNL40       0.0000
   3135 H          37.1707    3.5030    9.5244 H      40  UNL40       0.0000
   3136 H          35.5252    1.6651   10.0399 H      40  UNL40       0.0000
   3137 H          34.3573    1.5145   15.7618 H      40  UNL40       0.0000
   3138 H          36.1342    1.9210   13.6626 H      40  UNL40       0.0000
   3139 H          36.8083    1.6944   11.2506 H      40  UNL40       0.0000
   3140 N          40.5409   10.6956   16.6931 N.3    40  UNL40       0.0000
   3141 C          38.5773   11.2458   14.7783 C.3    40  UNL40       0.0000
   3142 C          40.7060    8.0681   16.2673 C.3    40  UNL40       0.0000
   3143 O          40.7048   12.7807   15.1331 O.2    40  UNL40       0.0000
   3144 O          39.0049   12.5890   16.9716 O.2    40  UNL40       0.0000
   3145 O          42.7153    9.5091   17.1175 O.2    40  UNL40       0.0000
   3146 O          42.0012    9.8087   14.7152 O.2    40  UNL40       0.0000
   3147 F          37.6170   10.5708   15.4659 F      40  UNL40       0.0000
   3148 F          37.9861   12.2789   14.1149 F      40  UNL40       0.0000
   3149 F          39.1038   10.4072   13.8548 F      40  UNL40       0.0000
   3150 F          41.4237    7.0618   15.6955 F      40  UNL40       0.0000
   3151 F          40.4920    7.7329   17.5721 F      40  UNL40       0.0000
   3152 F          39.5038    8.1121   15.6358 F      40  UNL40       0.0000
   3153 S          39.8449   11.9360   15.9792 S.O2   40  UNL40       0.0000
   3154 S          41.6595    9.6886   16.1255 S.O2   40  UNL40       0.0000
   3155 TI         24.1821   -5.2629   25.0959 Ti      1  UNL1        0.0000
   3156 TI         35.2601   -2.2001   15.4852 Ti      1  UNL1        0.0000
   3157 TI         28.7270   -8.5776   23.2000 Ti      1  UNL1        0.0000
   3158 TI         30.6679    1.1136   17.3768 Ti      1  UNL1        0.0000
   3159 TI         28.9952    2.0021   15.4097 Ti      1  UNL1        0.0000
   3160 TI         30.1982   -9.7423   25.1692 Ti      1  UNL1        0.0000
   3161 TI         25.6293   -6.5632   23.1968 Ti      1  UNL1        0.0000
   3162 TI         33.5442   -1.1564   17.3339 Ti      1  UNL1        0.0000
   3163 H          30.8299   -5.8949   20.7199 H       1  UNL1        0.0000
   3164 H          27.1443  -11.5647   21.0056 H       1  UNL1        0.0000
   3165 H          32.2938    3.8995   19.6068 H       1  UNL1        0.0000
   3166 H          24.1946   -1.2426   24.9277 H       1  UNL1        0.0000
   3167 H          35.0862   -6.3302   15.7948 H       1  UNL1        0.0000
   3168 H          20.4292   -6.8753   24.7470 H       1  UNL1        0.0000
   3169 H          38.9326   -0.7223   15.6740 H       1  UNL1        0.0000
   3170 H          30.4296  -13.8986   24.8647 H       1  UNL1        0.0000
   3171 H          25.0917    0.6182   15.6759 H       1  UNL1        0.0000
   3172 H          31.9692   -3.9373   19.6343 H       1  UNL1        0.0000
   3173 H          27.2160   -3.5932   21.0203 H       1  UNL1        0.0000
   3174 H          23.4780   -9.3320   20.8166 H       1  UNL1        0.0000
   3175 H          29.8609    0.5784   13.4889 H       1  UNL1        0.0000
   3176 H          34.2400   -0.7359   13.6597 H       1  UNL1        0.0000
   3177 H          27.6016   -6.9027   24.7658 H       1  UNL1        0.0000
   3178 H          31.5997   -0.6365   15.7809 H       1  UNL1        0.0000
   3179 H          30.8358   -9.9227   19.7215 H       1  UNL1        0.0000
   3180 H          28.4967    2.2655   20.8774 H       1  UNL1        0.0000
   3181 H          21.1534   -3.4530   22.6919 H       1  UNL1        0.0000
   3182 H          38.0964   -4.1507   17.9660 H       1  UNL1        0.0000
   3183 H          23.6166   -5.1022   19.5786 H       1  UNL1        0.0000
   3184 H          26.0669    4.1906   17.8967 H       1  UNL1        0.0000
   3185 H          27.1707   -1.3964   20.1066 H       1  UNL1        0.0000
   3186 H          28.5841   -0.6322   19.4097 H       1  UNL1        0.0000
   3187 H          28.8305    5.2198   16.1974 H       1  UNL1        0.0000
   3188 H          35.0501   -8.3843   16.9944 H      43  UNL43       0.0000
   3189 H          34.6279   -7.8827   23.6210 H       1  UNL1        0.0000
   3190 H          33.2766   -8.6905   24.3886 H       1  UNL1        0.0000
   3191 H          37.1521    1.4514   19.9685 H       1  UNL1        0.0000
   3192 H          35.7805    0.7198   19.1597 H       1  UNL1        0.0000
   3193 H          35.2796   -2.1901   22.2137 H       1  UNL1        0.0000
   3194 H          34.7840   -1.9235   20.5504 H       1  UNL1        0.0000
   3195 H          34.1942  -12.5087   23.1676 H       1  UNL1        0.0000
   3196 H          32.8584  -11.5163   23.7286 H       1  UNL1        0.0000
   3197 C          35.9321   -2.7015   18.3306 C.2     1  UNL1        0.0000
   3198 C          23.3492   -4.8959   22.2769 C.3     1  UNL1        0.0000
   3199 C          31.0936  -10.1611   22.3308 C.2     1  UNL1        0.0000
   3200 C          28.2082    2.5451   18.2447 C.3     1  UNL1        0.0000
   3201 C          36.7647   -3.2740   19.3989 C.2     1  UNL1        0.0000
   3202 C          22.4582   -4.3201   21.2326 C.ar    1  UNL1        0.0000
   3203 C          31.9440  -10.8171   21.3242 C.2     1  UNL1        0.0000
   3204 C          27.3623    3.1688   19.3011 C.ar    1  UNL1        0.0000
   3205 C          36.4642   -3.0846   20.7875 C.3     1  UNL1        0.0000
   3206 C          22.7439   -4.5222   19.8650 C.ar    1  UNL1        0.0000
   3207 C          33.0304  -11.6810   21.6850 C.3     1  UNL1        0.0000
   3208 C          26.2834    4.0079   18.9455 C.ar    1  UNL1        0.0000
   3209 C          27.6591    2.9173   20.6364 C.ar    1  UNL1        0.0000
   3210 C          31.6687  -10.5816   19.9571 C.3     1  UNL1        0.0000
   3211 C          37.9029   -4.0274   19.0291 C.3     1  UNL1        0.0000
   3212 C          21.3459   -3.5854   21.6290 C.ar    1  UNL1        0.0000
   3213 C          30.2524   -2.6567   19.7215 C.ar    1  UNL1        0.0000
   3214 C          28.9513   -4.8417   20.9169 C.ar    1  UNL1        0.0000
   3215 C          34.0433    2.6609   19.6270 C.2     1  UNL1        0.0000
   3216 C          25.3753  -10.3594   20.9718 C.2     1  UNL1        0.0000
   3217 C          35.1987   -6.2479   13.6603 C.2     1  UNL1        0.0000
   3218 C          28.9337    6.1148   13.7034 C.ar    1  UNL1        0.0000
   3219 C          38.8854   -0.8184   13.5342 C.2     1  UNL1        0.0000
   3220 C          25.2930    0.6845   13.5232 C.ar    1  UNL1        0.0000
   3221 C          30.9749   -1.5775   19.0271 C.3     1  UNL1        0.0000
   3222 C          28.2543   -5.9894   21.5696 C.3     1  UNL1        0.0000
   3223 C          33.3703    1.6220   18.8389 C.2     1  UNL1        0.0000
   3224 C          26.0209   -9.2682   21.7531 C.2     1  UNL1        0.0000
   3225 C          35.2523   -4.7589   13.6635 C.2     1  UNL1        0.0000
   3226 C          28.9153    4.6469   13.6573 C.3     1  UNL1        0.0000
   3227 C          37.5965   -1.5275   13.5590 C.2     1  UNL1        0.0000
   3228 C          26.5912    1.4200   13.5598 C.3     1  UNL1        0.0000
   3229 C          28.8826   -2.5290   20.1218 C.ar    1  UNL1        0.0000
   3230 C          30.3076   -4.9591   20.5441 C.ar    1  UNL1        0.0000
   3231 C          33.3233    3.8341   19.9504 C.3     1  UNL1        0.0000
   3232 C          26.1112  -11.4996   20.6687 C.3     1  UNL1        0.0000
   3233 C          35.1083   -6.9146   14.8769 C.3     1  UNL1        0.0000
   3234 C          24.1693   -0.6569   25.8436 C.ar    1  UNL1        0.0000
   3235 C          39.4637   -0.4407   14.7679 C.3     1  UNL1        0.0000
   3236 C          19.8969   -7.1542   25.6547 C.ar    1  UNL1        0.0000
   3237 C          35.4056    2.5273   20.0506 C.3     1  UNL1        0.0000
   3238 C          24.0299  -10.2328   20.5645 C.3     1  UNL1        0.0000
   3239 C          30.9310   -3.8757   19.9520 C.ar    1  UNL1        0.0000
   3240 C          28.2579   -3.6537   20.7108 C.ar    1  UNL1        0.0000
   3241 C          34.6909   -7.9485   25.6725 C.3     1  UNL1        0.0000
   3242 C          24.6475    0.3303   14.7277 C.ar    1  UNL1        0.0000
   3243 C          30.3649  -14.4413   25.8034 C.3     1  UNL1        0.0000
   3244 C          28.8939    6.8400   14.9386 C.ar    1  UNL1        0.0000
   3245 N          28.1757   -1.3636   19.9901 N.pl3   1  UNL1        0.0000
   3246 N          28.7603    6.2344   16.1555 N.pl3   1  UNL1        0.0000
   3247 N          34.2227   -8.3173   24.4405 N.3     1  UNL1        0.0000
   3248 N          36.1528    1.4061   19.8141 N.3     1  UNL1        0.0000
   3249 N          35.3622   -2.4121   21.2301 N.3     1  UNL1        0.0000
   3250 N          33.3425  -11.9977   22.9749 N.3     1  UNL1        0.0000
   3251 O          34.9125   -1.9792   18.6555 O.2     1  UNL1        0.0000
   3252 O          24.2951   -5.6732   21.9053 O.3     1  UNL1        0.0000
   3253 O          31.3668  -10.3444   23.5818 O.2     1  UNL1        0.0000
   3254 O          27.8772    2.7132   17.0228 O.3     1  UNL1        0.0000
   3255 O          29.2318    1.8648   18.6241 O.3     1  UNL1        0.0000
   3256 O          30.1187   -9.4198   21.9463 O.2     1  UNL1        0.0000
   3257 O          36.2485   -2.9316   17.1042 O.2     1  UNL1        0.0000
   3258 O          23.1199   -4.5793   23.4998 O.3     1  UNL1        0.0000
   3259 O          33.5771   -2.6088   16.3063 O.3     1  UNL1        0.0000
   3260 O          25.7696   -5.0191   24.1918 O.3     1  UNL1        0.0000
   3261 O          34.9904   -0.5925   16.2394 O.3     1  UNL1        0.0000
   3262 O          24.2810   -6.9674   24.3760 O.3     1  UNL1        0.0000
   3263 O          28.7209  -10.1506   24.1988 O.3     1  UNL1        0.0000
   3264 O          30.5233    2.5809   16.3355 O.3     1  UNL1        0.0000
   3265 O          29.9575   -8.0394   24.4519 O.3     1  UNL1        0.0000
   3266 O          29.3665    0.4131   16.1776 O.3     1  UNL1        0.0000
   3267 O          32.2184   -1.7656   18.7372 O.3     1  UNL1        0.0000
   3268 O          26.9948   -5.9095   21.7569 O.3     1  UNL1        0.0000
   3269 O          33.9993    0.5625   18.5125 O.2     1  UNL1        0.0000
   3270 O          25.2929   -8.2956   22.1407 O.2     1  UNL1        0.0000
   3271 O          30.3786  -11.6359   25.8931 O.2     1  UNL1        0.0000
   3272 O          28.8208    3.9797   14.7455 O.3     1  UNL1        0.0000
   3273 O          32.1740   -9.3127   25.8107 O.2     1  UNL1        0.0000
   3274 O          27.1280    1.5852   14.7141 O.3     1  UNL1        0.0000
   3275 O          32.1410    1.8181   18.4853 O.2     1  UNL1        0.0000
   3276 O          27.2683   -9.3626   22.0043 O.2     1  UNL1        0.0000
   3277 O          30.3523   -0.4992   18.7246 O.3     1  UNL1        0.0000
   3278 O          28.9746   -6.9915   21.9119 O.3     1  UNL1        0.0000
   3279 O          37.0765   -1.8132   14.7035 O.2     1  UNL1        0.0000
   3280 O          22.2396   -5.6517   25.8264 O.3     1  UNL1        0.0000
   3281 O          35.3061   -4.1582   14.7814 O.2     1  UNL1        0.0000
   3282 O          24.1533   -3.4158   25.8738 O.3     1  UNL1        0.0000
   3283 O          32.0516   -0.1125   16.4669 O.3     1  UNL1        0.0000
   3284 O          27.2301   -7.4778   24.0728 O.3     1  UNL1        0.0000
   3285 O          34.4681   -1.6828   13.6523 O.3     1  UNL1        0.0000
   3286 O          29.6917    1.5350   13.5675 O.3     1  UNL1        0.0000
   3287 N          29.1837   -5.0540   27.2463 N.pl3  40  UNL40       0.0000
   3288 N          30.1109   -5.0823   25.2648 N.pl3  40  UNL40       0.0000
   3289 C          28.1958   -4.7311   26.3297 C.2    40  UNL40       0.0000
   3290 C          28.7795   -4.7451   25.0872 C.2    40  UNL40       0.0000
   3291 C          31.5664   -3.8373   23.6779 C.3    40  UNL40       0.0000
   3292 C          29.0321   -5.0628   28.7118 C.3    40  UNL40       0.0000
   3293 C          30.3357   -5.2679   26.5776 C.3    40  UNL40       0.0000
   3294 C          31.1230   -5.2044   24.1914 C.3    40  UNL40       0.0000
   3295 H          27.1715   -4.5408   26.6294 H      40  UNL40       0.0000
   3296 H          28.3498   -4.5459   24.1131 H      40  UNL40       0.0000
   3297 H          30.7272   -3.2878   23.2318 H      40  UNL40       0.0000
   3298 H          29.4938   -4.1611   29.1293 H      40  UNL40       0.0000
   3299 H          32.0074   -3.2292   24.4774 H      40  UNL40       0.0000
   3300 H          27.9626   -5.0665   28.9455 H      40  UNL40       0.0000
   3301 H          32.3151   -3.9767   22.8854 H      40  UNL40       0.0000
   3302 H          30.6696   -5.8146   23.4009 H      40  UNL40       0.0000
   3303 H          29.5018   -5.9652   29.1228 H      40  UNL40       0.0000
   3304 H          31.2787   -5.5587   27.0236 H      40  UNL40       0.0000
   3305 H          31.9527   -5.7853   24.6116 H      40  UNL40       0.0000
   3306 N          35.6854    3.2158   30.0541 N.3    40  UNL40       0.0000
   3307 C          33.7218    3.7660   28.1393 C.3    40  UNL40       0.0000
   3308 C          35.8505    0.5884   29.6283 C.3    40  UNL40       0.0000
   3309 O          35.8492    5.3010   28.4941 O.2    40  UNL40       0.0000
   3310 O          34.1494    5.1093   30.3326 O.2    40  UNL40       0.0000
   3311 O          37.8598    2.0294   30.4785 O.2    40  UNL40       0.0000
   3312 O          37.1457    2.3289   28.0762 O.2    40  UNL40       0.0000
   3313 F          32.7615    3.0911   28.8269 F      40  UNL40       0.0000
   3314 F          33.1306    4.7992   27.4759 F      40  UNL40       0.0000
   3315 F          34.2483    2.9275   27.2158 F      40  UNL40       0.0000
   3316 F          36.5682   -0.4180   29.0565 F      40  UNL40       0.0000
   3317 F          35.6365    0.2532   30.9331 F      40  UNL40       0.0000
   3318 F          34.6482    0.6324   28.9968 F      40  UNL40       0.0000
   3319 S          34.9894    4.4562   29.3402 S.O2   40  UNL40       0.0000
   3320 S          36.8039    2.2088   29.4865 S.O2   40  UNL40       0.0000
   3321 TI         19.3266  -12.7426   38.4569 Ti      1  UNL1        0.0000
   3322 TI         30.4046   -9.6799   28.8462 Ti      1  UNL1        0.0000
   3323 TI         23.8715  -16.0574   36.5610 Ti      1  UNL1        0.0000
   3324 TI         25.8123   -6.3661   30.7378 Ti      1  UNL1        0.0000
   3325 TI         24.1397   -5.4777   28.7707 Ti      1  UNL1        0.0000
   3326 TI         25.3427  -17.2221   38.5302 Ti      1  UNL1        0.0000
   3327 TI         20.7738  -14.0429   36.5578 Ti      1  UNL1        0.0000
   3328 TI         28.6887   -8.6361   30.6949 Ti      1  UNL1        0.0000
   3329 H          25.9744  -13.3746   34.0809 H       1  UNL1        0.0000
   3330 H          22.2888  -19.0445   34.3666 H       1  UNL1        0.0000
   3331 H          27.4382   -3.5803   32.9678 H       1  UNL1        0.0000
   3332 H          19.3390   -8.7223   38.2887 H      40  UNL40       0.0000
   3333 H          30.2307  -13.8099   29.1558 H       1  UNL1        0.0000
   3334 H          15.5736  -14.3550   38.1080 H      12  UNL12       0.0000
   3335 H          34.0771   -8.2021   29.0350 H       1  UNL1        0.0000
   3336 H          25.5740  -21.3783   38.2257 H      40  UNL40       0.0000
   3337 H          20.2361   -6.8615   29.0369 H       1  UNL1        0.0000
   3338 H          27.1136  -11.4171   32.9953 H       1  UNL1        0.0000
   3339 H          22.3604  -11.0729   34.3813 H       1  UNL1        0.0000
   3340 H          18.6224  -16.8117   34.1776 H       1  UNL1        0.0000
   3341 H          25.0054   -6.9013   26.8499 H       1  UNL1        0.0000
   3342 H          29.3845   -8.2157   27.0207 H       1  UNL1        0.0000
   3343 H          22.7460  -14.3824   38.1268 H       1  UNL1        0.0000
   3344 H          26.7442   -8.1162   29.1419 H       1  UNL1        0.0000
   3345 H          25.9803  -17.4024   33.0825 H       1  UNL1        0.0000
   3346 H          23.6412   -5.2142   34.2384 H       1  UNL1        0.0000
   3347 H          16.2979  -10.9328   36.0529 H       1  UNL1        0.0000
   3348 H          33.2409  -11.6304   31.3270 H       1  UNL1        0.0000
   3349 H          18.7611  -12.5819   32.9396 H       1  UNL1        0.0000
   3350 H          21.2114   -3.2891   31.2577 H       1  UNL1        0.0000
   3351 H          22.3152   -8.8761   33.4676 H       1  UNL1        0.0000
   3352 H          23.7286   -8.1120   32.7707 H       1  UNL1        0.0000
   3353 H          23.9749   -2.2600   29.5584 H       1  UNL1        0.0000
   3354 H          30.1945  -15.8641   30.3554 H      44  UNL44       0.0000
   3355 H          29.7723  -15.3625   36.9820 H      40  UNL40       0.0000
   3356 H          28.4211  -16.1703   37.7496 H      40  UNL40       0.0000
   3357 H          32.2966   -6.0283   33.3295 H       1  UNL1        0.0000
   3358 H          30.9250   -6.7600   32.5207 H       1  UNL1        0.0000
   3359 H          30.4240   -9.6698   35.5747 H       1  UNL1        0.0000
   3360 H          29.9284   -9.4033   33.9114 H       1  UNL1        0.0000
   3361 H          29.3387  -19.9884   36.5286 H       1  UNL1        0.0000
   3362 H          28.0029  -18.9960   37.0896 H       1  UNL1        0.0000
   3363 C          31.0766  -10.1813   31.6916 C.2     1  UNL1        0.0000
   3364 C          18.4937  -12.3756   35.6379 C.3     1  UNL1        0.0000
   3365 C          26.2381  -17.6408   35.6918 C.2     1  UNL1        0.0000
   3366 C          23.3527   -4.9347   31.6057 C.3     1  UNL1        0.0000
   3367 C          31.9092  -10.7537   32.7599 C.2     1  UNL1        0.0000
   3368 C          17.6026  -11.7998   34.5936 C.ar    1  UNL1        0.0000
   3369 C          27.0885  -18.2969   34.6852 C.2     1  UNL1        0.0000
   3370 C          22.5068   -4.3109   32.6621 C.ar    1  UNL1        0.0000
   3371 C          31.6087  -10.5643   34.1485 C.3     1  UNL1        0.0000
   3372 C          17.8884  -12.0020   33.2260 C.ar    1  UNL1        0.0000
   3373 C          28.1749  -19.1607   35.0460 C.3     1  UNL1        0.0000
   3374 C          21.4279   -3.4718   32.3065 C.ar    1  UNL1        0.0000
   3375 C          22.8035   -4.5625   33.9974 C.ar    1  UNL1        0.0000
   3376 C          26.8132  -18.0614   33.3181 C.3     1  UNL1        0.0000
   3377 C          33.0473  -11.5071   32.3901 C.3     1  UNL1        0.0000
   3378 C          16.4904  -11.0652   34.9900 C.ar    1  UNL1        0.0000
   3379 C          25.3968  -10.1365   33.0825 C.ar    1  UNL1        0.0000
   3380 C          24.0958  -12.3214   34.2779 C.ar    1  UNL1        0.0000
   3381 C          29.1878   -4.8189   32.9880 C.2     1  UNL1        0.0000
   3382 C          20.5198  -17.8392   34.3328 C.2     1  UNL1        0.0000
   3383 C          30.3431  -13.7276   27.0213 C.2     1  UNL1        0.0000
   3384 C          24.0782   -1.3650   27.0644 C.ar    1  UNL1        0.0000
   3385 C          34.0299   -8.2981   26.8952 C.2     1  UNL1        0.0000
   3386 C          20.4375   -6.7953   26.8842 C.ar    1  UNL1        0.0000
   3387 C          26.1193   -9.0572   32.3881 C.3     1  UNL1        0.0000
   3388 C          23.3988  -13.4691   34.9306 C.3     1  UNL1        0.0000
   3389 C          28.5148   -5.8577   32.1999 C.2     1  UNL1        0.0000
   3390 C          21.1654  -16.7479   35.1141 C.2     1  UNL1        0.0000
   3391 C          30.3968  -12.2387   27.0245 C.2     1  UNL1        0.0000
   3392 C          24.0597   -2.8328   27.0183 C.3     1  UNL1        0.0000
   3393 C          32.7409   -9.0072   26.9200 C.2     1  UNL1        0.0000
   3394 C          21.7357   -6.0597   26.9208 C.3     1  UNL1        0.0000
   3395 C          24.0271  -10.0087   33.4828 C.ar    1  UNL1        0.0000
   3396 C          25.4521  -12.4388   33.9051 C.ar    1  UNL1        0.0000
   3397 C          28.4678   -3.6456   33.3114 C.3     1  UNL1        0.0000
   3398 C          21.2557  -18.9793   34.0297 C.3     1  UNL1        0.0000
   3399 C          30.2528  -14.3943   28.2379 C.3     1  UNL1        0.0000
   3400 C          19.3138   -8.1367   39.2046 C.2    40  UNL40       0.0000
   3401 C          34.6082   -7.9204   28.1289 C.3     1  UNL1        0.0000
   3402 C          15.0413  -14.6339   39.0157 C.2    12  UNL12       0.0000
   3403 C          30.5501   -4.9524   33.4116 C.3     1  UNL1        0.0000
   3404 C          19.1744  -17.7126   33.9255 C.3     1  UNL1        0.0000
   3405 C          26.0755  -11.3554   33.3130 C.ar    1  UNL1        0.0000
   3406 C          23.4023  -11.1335   34.0718 C.ar    1  UNL1        0.0000
   3407 C          29.8353  -15.4283   39.0335 C.3    40  UNL40       0.0000
   3408 C          19.7920   -7.1495   28.0887 C.ar    1  UNL1        0.0000
   3409 C          25.5094  -21.9210   39.1644 C.3    45  UNL45       0.0000
   3410 C          24.0384   -0.6397   28.2996 C.ar    1  UNL1        0.0000
   3411 N          23.3202   -8.8434   33.3511 N.pl3   1  UNL1        0.0000
   3412 N          23.9048   -1.2454   29.5165 N.pl3   1  UNL1        0.0000
   3413 N          29.3672  -15.7970   37.8015 N.3    40  UNL40       0.0000
   3414 N          31.2973   -6.0737   33.1751 N.3     1  UNL1        0.0000
   3415 N          30.5067   -9.8918   34.5911 N.3     1  UNL1        0.0000
   3416 N          28.4870  -19.4775   36.3359 N.3     1  UNL1        0.0000
   3417 O          30.0570   -9.4590   32.0165 O.2     1  UNL1        0.0000
   3418 O          19.4395  -13.1529   35.2663 O.3     1  UNL1        0.0000
   3419 O          26.5113  -17.8242   36.9428 O.2     1  UNL1        0.0000
   3420 O          23.0217   -4.7665   30.3838 O.3     1  UNL1        0.0000
   3421 O          24.3763   -5.6149   31.9851 O.3     1  UNL1        0.0000
   3422 O          25.2632  -16.8995   35.3073 O.2     1  UNL1        0.0000
   3423 O          31.3929  -10.4114   30.4652 O.2     1  UNL1        0.0000
   3424 O          18.2644  -12.0590   36.8608 O.3     1  UNL1        0.0000
   3425 O          28.7216  -10.0886   29.6673 O.3     1  UNL1        0.0000
   3426 O          20.9140  -12.4988   37.5528 O.3     1  UNL1        0.0000
   3427 O          30.1349   -8.0722   29.6004 O.3     1  UNL1        0.0000
   3428 O          19.4255  -14.4472   37.7370 O.3     1  UNL1        0.0000
   3429 O          23.8654  -17.6304   37.5597 O.3     1  UNL1        0.0000
   3430 O          25.6677   -4.8989   29.6964 O.3     1  UNL1        0.0000
   3431 O          25.1019  -15.5191   37.8129 O.3     1  UNL1        0.0000
   3432 O          24.5110   -7.0666   29.5386 O.3     1  UNL1        0.0000
   3433 O          27.3629   -9.2453   32.0982 O.3     1  UNL1        0.0000
   3434 O          22.1393  -13.3892   35.1179 O.3     1  UNL1        0.0000
   3435 O          29.1438   -6.9173   31.8735 O.2     1  UNL1        0.0000
   3436 O          20.4374  -15.7753   35.5017 O.2     1  UNL1        0.0000
   3437 O          25.5231  -19.1156   39.2541 O.3     1  UNL1        0.0000
   3438 O          23.9653   -3.5000   28.1064 O.3     1  UNL1        0.0000
   3439 O          27.3185  -16.7924   39.1717 O.3     1  UNL1        0.0000
   3440 O          22.2725   -5.8945   28.0751 O.3     1  UNL1        0.0000
   3441 O          27.2855   -5.6617   31.8463 O.2     1  UNL1        0.0000
   3442 O          22.4127  -16.8424   35.3653 O.2     1  UNL1        0.0000
   3443 O          25.4968   -7.9790   32.0856 O.3     1  UNL1        0.0000
   3444 O          24.1191  -14.4712   35.2729 O.3     1  UNL1        0.0000
   3445 O          32.2210   -9.2930   28.0645 O.2     1  UNL1        0.0000
   3446 O          17.3840  -13.1314   39.1874 O.3     1  UNL1        0.0000
   3447 O          30.4506  -11.6380   28.1424 O.2     1  UNL1        0.0000
   3448 O          19.2977  -10.8956   39.2348 O.3     1  UNL1        0.0000
   3449 O          27.1961   -7.5923   29.8279 O.3     1  UNL1        0.0000
   3450 O          22.3746  -14.9575   37.4338 O.3     1  UNL1        0.0000
   3451 O          29.6125   -9.1626   27.0133 O.3     1  UNL1        0.0000
   3452 O          24.8361   -5.9448   26.9285 O.3     1  UNL1        0.0000
   3453 N          24.3282  -12.5337   40.6073 N.pl3  40  UNL40       0.0000
   3454 N          25.2553  -12.5621   38.6258 N.pl3  40  UNL40       0.0000
   3455 C          23.3403  -12.2108   39.6907 C.2    40  UNL40       0.0000
   3456 C          23.9239  -12.2249   38.4482 C.2    40  UNL40       0.0000
   3457 C          26.7109  -11.3171   37.0389 C.3    40  UNL40       0.0000
   3458 C          24.1766  -12.5425   42.0728 C.3    40  UNL40       0.0000
   3459 C          25.4802  -12.7477   39.9386 C.3    40  UNL40       0.0000
   3460 C          26.2674  -12.6841   37.5524 C.3    40  UNL40       0.0000
   3461 H          22.3160  -12.0206   39.9904 H      40  UNL40       0.0000
   3462 H          23.4942  -12.0257   37.4741 H      40  UNL40       0.0000
   3463 H          25.8716  -10.7675   36.5928 H      40  UNL40       0.0000
   3464 H          24.6383  -11.6408   42.4903 H      40  UNL40       0.0000
   3465 H          27.1519  -10.7089   37.8384 H      40  UNL40       0.0000
   3466 H          23.1071  -12.5462   42.3065 H      40  UNL40       0.0000
   3467 H          27.4596  -11.4565   36.2464 H      40  UNL40       0.0000
   3468 H          25.8141  -13.2943   36.7619 H      40  UNL40       0.0000
   3469 H          24.6463  -13.4450   42.4838 H      40  UNL40       0.0000
   3470 H          26.4231  -13.0384   40.3845 H      40  UNL40       0.0000
   3471 H          27.0972  -13.2651   37.9726 H      40  UNL40       0.0000
   3472 N          30.8299   -4.2639   43.4151 N.3    40  UNL40       0.0000
   3473 C          28.8663   -3.7137   41.5003 C.3    40  UNL40       0.0000
   3474 C          30.9950   -6.8913   42.9893 C.3    40  UNL40       0.0000
   3475 O          30.9937   -2.1788   41.8551 O.2    40  UNL40       0.0000
   3476 O          29.2938   -2.3705   43.6936 O.2    40  UNL40       0.0000
   3477 O          33.0043   -5.4504   43.8395 O.2    40  UNL40       0.0000
   3478 O          32.2902   -5.1508   41.4372 O.2    40  UNL40       0.0000
   3479 F          27.9060   -4.3886   42.1879 F      40  UNL40       0.0000
   3480 F          28.2750   -2.6805   40.8369 F      40  UNL40       0.0000
   3481 F          29.3927   -4.5523   40.5768 F      40  UNL40       0.0000
   3482 F          31.7127   -7.8977   42.4175 F      40  UNL40       0.0000
   3483 F          30.7810   -7.2266   44.2941 F      40  UNL40       0.0000
   3484 F          29.7927   -6.8474   42.3578 F      40  UNL40       0.0000
   3485 S          30.1338   -3.0235   42.7012 S.O2   40  UNL40       0.0000
   3486 S          31.9484   -5.2709   42.8475 S.O2   40  UNL40       0.0000
   3487 TI         22.9008   17.3823   11.7335 Ti      1  UNL1        0.0000
   3488 TI         33.9787   20.4451    2.1228 Ti      1  UNL1        0.0000
   3489 TI         27.4457   14.0676    9.8376 Ti      1  UNL1        0.0000
   3490 TI         29.3865   23.7588    4.0144 Ti      1  UNL1        0.0000
   3491 TI         27.7139   24.6473    2.0473 Ti      1  UNL1        0.0000
   3492 TI         28.9169   12.9029   11.8068 Ti      1  UNL1        0.0000
   3493 TI         24.3480   16.0820    9.8344 Ti      1  UNL1        0.0000
   3494 TI         32.2629   21.4888    3.9715 Ti      1  UNL1        0.0000
   3495 H          29.5486   16.7503    7.3575 H       1  UNL1        0.0000
   3496 H          25.8630   11.0805    7.6432 H       1  UNL1        0.0000
   3497 H          31.0124   26.5447    6.2444 H       1  UNL1        0.0000
   3498 H          22.9132   21.4026   11.5653 H       1  UNL1        0.0000
   3499 H          33.8049   16.3150    2.4324 H       1  UNL1        0.0000
   3500 H          19.1478   15.7699   11.3845 H       1  UNL1        0.0000
   3501 H          37.6513   21.9229    2.3115 H       1  UNL1        0.0000
   3502 H          29.1482    8.7466   11.5023 H       1  UNL1        0.0000
   3503 H          23.8103   23.2634    2.3135 H       1  UNL1        0.0000
   3504 H          30.6878   18.7079    6.2719 H       1  UNL1        0.0000
   3505 H          25.9346   19.0520    7.6579 H       1  UNL1        0.0000
   3506 H          22.1966   13.3132    7.4542 H       1  UNL1        0.0000
   3507 H          28.5796   23.2236    0.1265 H       1  UNL1        0.0000
   3508 H          32.9587   21.9093    0.2973 H       1  UNL1        0.0000
   3509 H          26.3202   15.7425   11.4034 H       1  UNL1        0.0000
   3510 H          30.3184   22.0087    2.4185 H       1  UNL1        0.0000
   3511 H          29.5545   12.7225    6.3591 H       1  UNL1        0.0000
   3512 H          27.2154   24.9107    7.5150 H       1  UNL1        0.0000
   3513 H          19.8721   19.1922    9.3295 H       1  UNL1        0.0000
   3514 H          36.8151   18.4945    4.6036 H       1  UNL1        0.0000
   3515 H          22.3353   17.5430    6.2162 H       1  UNL1        0.0000
   3516 H          24.7856   26.8358    4.5343 H       1  UNL1        0.0000
   3517 H          25.8894   21.2488    6.7441 H       1  UNL1        0.0000
   3518 H          27.3028   22.0130    6.0473 H       1  UNL1        0.0000
   3519 H          27.5491   27.8650    2.8349 H       1  UNL1        0.0000
   3520 H          33.7687   14.2609    3.6320 H       1  UNL1        0.0000
   3521 H          33.3465   14.7625   10.2586 H       1  UNL1        0.0000
   3522 H          31.9953   13.9547   11.0262 H       1  UNL1        0.0000
   3523 H          35.8708   24.0966    6.6061 H       1  UNL1        0.0000
   3524 H          34.4991   23.3650    5.7973 H       1  UNL1        0.0000
   3525 H          33.9982   20.4551    8.8513 H       1  UNL1        0.0000
   3526 H          33.5026   20.7217    7.1880 H       1  UNL1        0.0000
   3527 H          32.9129   10.1365    9.8052 H       1  UNL1        0.0000
   3528 H          31.5771   11.1289   10.3662 H       1  UNL1        0.0000
   3529 C          34.6508   19.9437    4.9681 C.2     1  UNL1        0.0000
   3530 C          22.0679   17.7493    8.9145 C.3     1  UNL1        0.0000
   3531 C          29.8122   12.4841    8.9684 C.3     1  UNL1        0.0000
   3532 C          26.9269   25.1903    4.8823 C.3     1  UNL1        0.0000
   3533 C          35.4833   19.3712    6.0365 C.2     1  UNL1        0.0000
   3534 C          21.1768   18.3251    7.8702 C.ar    1  UNL1        0.0000
   3535 C          30.6627   11.8281    7.9617 C.ar    1  UNL1        0.0000
   3536 C          26.0810   25.8140    5.9387 C.ar    1  UNL1        0.0000
   3537 C          35.1828   19.5606    7.4251 C.3     1  UNL1        0.0000
   3538 C          21.4626   18.1230    6.5026 C.ar    1  UNL1        0.0000
   3539 C          31.7491   10.9642    8.3225 C.ar    1  UNL1        0.0000
   3540 C          25.0021   26.6531    5.5831 C.ar    1  UNL1        0.0000
   3541 C          26.3777   25.5625    7.2740 C.ar    1  UNL1        0.0000
   3542 C          30.3874   12.0636    6.5947 C.ar    1  UNL1        0.0000
   3543 C          36.6215   18.6178    5.6667 C.3     1  UNL1        0.0000
   3544 C          20.0646   19.0598    8.2666 C.ar    1  UNL1        0.0000
   3545 C          28.9710   19.9885    6.3590 C.ar    1  UNL1        0.0000
   3546 C          27.6700   17.8035    7.5545 C.ar    1  UNL1        0.0000
   3547 C          32.7620   25.3061    6.2646 C.2     1  UNL1        0.0000
   3548 C          24.0940   12.2858    7.6094 C.ar    1  UNL1        0.0000
   3549 C          33.9173   16.3973    0.2979 C.2     1  UNL1        0.0000
   3550 C          27.6524   28.7600    0.3410 C.2     1  UNL1        0.0000
   3551 C          37.6041   21.8268    0.1718 C.2     1  UNL1        0.0000
   3552 C          24.0116   23.3297    0.1608 C.2     1  UNL1        0.0000
   3553 C          29.6935   21.0677    5.6647 C.3     1  UNL1        0.0000
   3554 C          26.9730   16.6558    8.2072 C.3     1  UNL1        0.0000
   3555 C          32.0890   24.2672    5.4765 C.2     1  UNL1        0.0000
   3556 C          24.7396   13.3770    8.3907 C.3     1  UNL1        0.0000
   3557 C          33.9709   17.8863    0.3011 C.2     1  UNL1        0.0000
   3558 C          27.6339   27.2921    0.2949 C.2     1  UNL1        0.0000
   3559 C          36.3151   21.1177    0.1966 C.2     1  UNL1        0.0000
   3560 C          25.3099   24.0652    0.1974 C.2     1  UNL1        0.0000
   3561 C          27.6013   20.1162    6.7594 C.ar    1  UNL1        0.0000
   3562 C          29.0263   17.6862    7.1817 C.ar    1  UNL1        0.0000
   3563 C          32.0420   26.4793    6.5880 C.3     1  UNL1        0.0000
   3564 C          24.8299   11.1456    7.3063 C.ar    1  UNL1        0.0000
   3565 C          33.8270   15.7306    1.5145 C.2     1  UNL1        0.0000
   3566 C          22.8879   21.9883   12.4812 C.ar    1  UNL1        0.0000
   3567 C          38.1823   22.2045    1.4055 C.3     1  UNL1        0.0000
   3568 C          18.6155   15.4910   12.2923 C.ar    1  UNL1        0.0000
   3569 C          34.1243   25.1725    6.6882 C.3     1  UNL1        0.0000
   3570 C          22.7486   12.4124    7.2021 C.ar    1  UNL1        0.0000
   3571 C          29.6497   18.7695    6.5895 C.ar    1  UNL1        0.0000
   3572 C          26.9765   18.9915    7.3484 C.ar    1  UNL1        0.0000
   3573 C          33.4095   14.6967   12.3101 C.3     1  UNL1        0.0000
   3574 C          23.3662   22.9755    1.3653 C.2     1  UNL1        0.0000
   3575 C          29.0835    8.2039   12.4410 C.ar    1  UNL1        0.0000
   3576 C          27.6126   29.4852    1.5762 C.2     1  UNL1        0.0000
   3577 N          26.8943   21.2816    6.6277 N.pl3   1  UNL1        0.0000
   3578 N          27.4790   28.8796    2.7931 N.pl3   1  UNL1        0.0000
   3579 N          32.9414   14.3279   11.0780 N.3     1  UNL1        0.0000
   3580 N          34.8715   24.0513    6.4517 N.3     1  UNL1        0.0000
   3581 N          34.0809   20.2331    7.8677 N.3     1  UNL1        0.0000
   3582 N          32.0612   10.6475    9.6125 N.pl3   1  UNL1        0.0000
   3583 O          33.6312   20.6660    5.2931 O.2     1  UNL1        0.0000
   3584 O          23.0137   16.9720    8.5429 O.3     1  UNL1        0.0000
   3585 O          30.0855   12.3008   10.2194 O.3     1  UNL1        0.0000
   3586 O          26.5959   25.3584    3.6604 O.3     1  UNL1        0.0000
   3587 O          27.9505   24.5100    5.2616 O.3     1  UNL1        0.0000
   3588 O          28.8373   13.2254    8.5839 O.3     1  UNL1        0.0000
   3589 O          34.9671   19.7136    3.7418 O.2     1  UNL1        0.0000
   3590 O          21.8386   18.0659   10.1374 O.3     1  UNL1        0.0000
   3591 O          32.2958   20.0364    2.9439 O.3     1  UNL1        0.0000
   3592 O          24.4882   17.6261   10.8294 O.3     1  UNL1        0.0000
   3593 O          33.7091   22.0527    2.8770 O.3     1  UNL1        0.0000
   3594 O          22.9997   15.6778   11.0136 O.3     1  UNL1        0.0000
   3595 O          27.4396   12.4946   10.8363 O.3     1  UNL1        0.0000
   3596 O          29.2419   25.2261    2.9730 O.3     1  UNL1        0.0000
   3597 O          28.6761   14.6058   11.0895 O.3     1  UNL1        0.0000
   3598 O          28.0851   23.0583    2.8152 O.3     1  UNL1        0.0000
   3599 O          30.9371   20.8796    5.3747 O.3     1  UNL1        0.0000
   3600 O          25.7135   16.7357    8.3945 O.3     1  UNL1        0.0000
   3601 O          32.7180   23.2077    5.1501 O.2     1  UNL1        0.0000
   3602 O          24.0116   14.3496    8.7783 O.3     1  UNL1        0.0000
   3603 O          29.0973   11.0093   12.5306 O.3     1  UNL1        0.0000
   3604 O          27.5395   26.6249    1.3830 O.2     1  UNL1        0.0000
   3605 O          30.8927   13.3325   12.4483 O.2     1  UNL1        0.0000
   3606 O          25.8467   24.2304    1.3517 O.2     1  UNL1        0.0000
   3607 O          30.8597   24.4633    5.1229 O.2     1  UNL1        0.0000
   3608 O          25.9869   13.2826    8.6419 O.3     1  UNL1        0.0000
   3609 O          29.0710   22.1460    5.3622 O.3     1  UNL1        0.0000
   3610 O          27.6933   15.6537    8.5495 O.3     1  UNL1        0.0000
   3611 O          35.7952   20.8320    1.3411 O.2     1  UNL1        0.0000
   3612 O          20.9582   16.9935   12.4640 O.3     1  UNL1        0.0000
   3613 O          34.0248   18.4870    1.4190 O.2     1  UNL1        0.0000
   3614 O          22.8719   19.2294   12.5114 O.3     1  UNL1        0.0000
   3615 O          30.7703   22.5327    3.1045 O.3     1  UNL1        0.0000
   3616 O          25.9488   15.1674   10.7104 O.3     1  UNL1        0.0000
   3617 O          33.1867   20.9624    0.2899 O.3     1  UNL1        0.0000
   3618 O          28.4103   24.1802    0.2051 O.3     1  UNL1        0.0000
   3619 N          27.9024   17.5912   13.8839 N.pl3  40  UNL40       0.0000
   3620 N          28.8295   17.5629   11.9024 N.pl3  40  UNL40       0.0000
   3621 C          26.9145   17.9141   12.9672 C.2    40  UNL40       0.0000
   3622 C          27.4981   17.9001   11.7248 C.2    40  UNL40       0.0000
   3623 C          30.2851   18.8079   10.3155 C.3    40  UNL40       0.0000
   3624 C          27.7508   17.5824   15.3493 C.3    40  UNL40       0.0000
   3625 C          29.0544   17.3773   13.2152 C.3    40  UNL40       0.0000
   3626 C          29.8416   17.4408   10.8290 C.3    40  UNL40       0.0000
   3627 H          25.8902   18.1044   13.2670 H      40  UNL40       0.0000
   3628 H          27.0684   18.0993   10.7507 H      40  UNL40       0.0000
   3629 H          29.4458   19.3574    9.8694 H      40  UNL40       0.0000
   3630 H          28.2125   18.4841   15.7669 H      40  UNL40       0.0000
   3631 H          30.7261   19.4160   11.1150 H      40  UNL40       0.0000
   3632 H          26.6813   17.5787   15.5831 H      40  UNL40       0.0000
   3633 H          31.0338   18.6685    9.5230 H      40  UNL40       0.0000
   3634 H          29.3883   16.8306   10.0385 H      40  UNL40       0.0000
   3635 H          28.2205   16.6800   15.7604 H      40  UNL40       0.0000
   3636 H          29.9973   17.0865   13.6611 H      40  UNL40       0.0000
   3637 H          30.6714   16.8599   11.2492 H      40  UNL40       0.0000
   3638 N          34.4041   25.8610   16.6917 N.3    40  UNL40       0.0000
   3639 C          32.4405   26.4112   14.7769 C.3    40  UNL40       0.0000
   3640 C          34.5692   23.2336   16.2659 C.3    40  UNL40       0.0000
   3641 O          34.5679   27.9462   15.1317 O.2    40  UNL40       0.0000
   3642 O          32.8680   27.7545   16.9702 O.2    40  UNL40       0.0000
   3643 O          36.5785   24.6746   17.1161 O.2    40  UNL40       0.0000
   3644 O          35.8643   24.9741   14.7138 O.2    40  UNL40       0.0000
   3645 F          31.4802   25.7363   15.4645 F      40  UNL40       0.0000
   3646 F          31.8492   27.4444   14.1134 F      40  UNL40       0.0000
   3647 F          32.9669   25.5727   13.8534 F      40  UNL40       0.0000
   3648 F          35.2869   22.2272   15.6941 F      40  UNL40       0.0000
   3649 F          34.3552   22.8984   17.5707 F      40  UNL40       0.0000
   3650 F          33.3669   23.2776   15.6343 F      40  UNL40       0.0000
   3651 S          33.7080   27.1014   15.9778 S.O2   40  UNL40       0.0000
   3652 S          35.5226   24.8540   16.1241 S.O2   40  UNL40       0.0000
   3653 TI         18.0452    9.9026   25.0945 Ti      1  UNL1        0.0000
   3654 TI         29.1232   12.9653   15.4838 Ti      1  UNL1        0.0000
   3655 TI         22.5901    6.5878   23.1986 Ti      1  UNL1        0.0000
   3656 TI         24.5310   16.2791   17.3754 Ti      1  UNL1        0.0000
   3657 TI         22.8584   17.1675   15.4083 Ti      1  UNL1        0.0000
   3658 TI         24.0614    5.4231   25.1678 Ti      1  UNL1        0.0000
   3659 TI         19.4924    8.6023   23.1954 Ti      1  UNL1        0.0000
   3660 TI         27.4074   14.0091   17.3325 Ti      1  UNL1        0.0000
   3661 H          24.6930    9.2706   20.7185 H       1  UNL1        0.0000
   3662 H          21.0074    3.6007   21.0042 H       1  UNL1        0.0000
   3663 H          26.1569   19.0649   19.6054 H       1  UNL1        0.0000
   3664 H          18.0577   13.9229   24.9263 H       1  UNL1        0.0000
   3665 H          28.9493    8.8353   15.7934 H       1  UNL1        0.0000
   3666 H          14.2923    8.2902   24.7455 H       1  UNL1        0.0000
   3667 H          32.7957   14.4431   15.6725 H       1  UNL1        0.0000
   3668 H          24.2927    1.2669   24.8633 H       1  UNL1        0.0000
   3669 H          18.9548   15.7837   15.6745 H       1  UNL1        0.0000
   3670 H          25.8323   11.2281   19.6329 H       1  UNL1        0.0000
   3671 H          21.0791   11.5723   21.0189 H       1  UNL1        0.0000
   3672 H          17.3411    5.8335   20.8152 H       1  UNL1        0.0000
   3673 H          23.7241   15.7439   13.4875 H       1  UNL1        0.0000
   3674 H          28.1032   14.4295   13.6583 H       1  UNL1        0.0000
   3675 H          21.4647    8.2628   24.7644 H       1  UNL1        0.0000
   3676 H          25.4629   14.5290   15.7795 H       1  UNL1        0.0000
   3677 H          24.6989    5.2428   19.7201 H       1  UNL1        0.0000
   3678 H          22.3599   17.4310   20.8760 H       1  UNL1        0.0000
   3679 H          15.0166   11.7124   22.6905 H       1  UNL1        0.0000
   3680 H          31.9595   11.0148   17.9646 H       1  UNL1        0.0000
   3681 H          17.4798   10.0633   19.5772 H       1  UNL1        0.0000
   3682 H          19.9301   19.3561   17.8953 H       1  UNL1        0.0000
   3683 H          21.0339   13.7691   20.1051 H       1  UNL1        0.0000
   3684 H          22.4472   14.5332   19.4083 H       1  UNL1        0.0000
   3685 H          22.6936   20.3852   16.1959 H       1  UNL1        0.0000
   3686 H          28.9132    6.7811   16.9930 H       1  UNL1        0.0000
   3687 H          28.4910    7.2827   23.6196 H       1  UNL1        0.0000
   3688 H          27.1398    6.4749   24.3872 H       1  UNL1        0.0000
   3689 H          31.0153   16.6169   19.9671 H       1  UNL1        0.0000
   3690 H          29.6436   15.8852   19.1583 H       1  UNL1        0.0000
   3691 H          29.1427   12.9754   22.2123 H       1  UNL1        0.0000
   3692 H          28.6471   13.2419   20.5490 H       1  UNL1        0.0000
   3693 H          28.0574    2.6568   23.1662 H       1  UNL1        0.0000
   3694 H          26.7215    3.6492   23.7272 H       1  UNL1        0.0000
   3695 C          29.7952   12.4639   18.3291 C.2     1  UNL1        0.0000
   3696 C          17.2124   10.2696   22.2755 C.3     1  UNL1        0.0000
   3697 C          24.9567    5.0044   22.3294 C.3     1  UNL1        0.0000
   3698 C          22.0713   17.7105   18.2433 C.3     1  UNL1        0.0000
   3699 C          30.6278   11.8915   19.3974 C.2     1  UNL1        0.0000
   3700 C          16.3213   10.8454   21.2312 C.ar    1  UNL1        0.0000
   3701 C          25.8072    4.3483   21.3227 C.ar    1  UNL1        0.0000
   3702 C          21.2255   18.3343   19.2997 C.ar    1  UNL1        0.0000
   3703 C          30.3273   12.0809   20.7861 C.3     1  UNL1        0.0000
   3704 C          16.6070   10.6432   19.8636 C.ar    1  UNL1        0.0000
   3705 C          26.8936    3.4845   21.6835 C.ar    1  UNL1        0.0000
   3706 C          20.1466   19.1734   18.9441 C.ar    1  UNL1        0.0000
   3707 C          21.5222   18.0827   20.6350 C.ar    1  UNL1        0.0000
   3708 C          25.5318    4.5838   19.9557 C.ar    1  UNL1        0.0000
   3709 C          31.7660   11.1381   19.0277 C.3     1  UNL1        0.0000
   3710 C          15.2091   11.5800   21.6276 C.ar    1  UNL1        0.0000
   3711 C          24.1155   12.5087   19.7200 C.ar    1  UNL1        0.0000
   3712 C          22.8144   10.3238   20.9155 C.ar    1  UNL1        0.0000
   3713 C          27.9065   17.8263   19.6256 C.2     1  UNL1        0.0000
   3714 C          19.2384    4.8060   20.9704 C.ar    1  UNL1        0.0000
   3715 C          29.0618    8.9176   13.6589 C.ar    1  UNL1        0.0000
   3716 C          22.7968   21.2802   13.7020 C.ar    1  UNL1        0.0000
   3717 C          32.7486   14.3471   13.5328 C.2     1  UNL1        0.0000
   3718 C          19.1561   15.8499   13.5218 C.ar    1  UNL1        0.0000
   3719 C          24.8380   13.5880   19.0257 C.3     1  UNL1        0.0000
   3720 C          22.1175    9.1761   21.5682 C.3     1  UNL1        0.0000
   3721 C          27.2334   16.7875   18.8375 C.2     1  UNL1        0.0000
   3722 C          19.8841    5.8973   21.7517 C.3     1  UNL1        0.0000
   3723 C          29.1154   10.4065   13.6621 C.3     1  UNL1        0.0000
   3724 C          22.7784   19.8124   13.6559 C.3     1  UNL1        0.0000
   3725 C          31.4596   13.6380   13.5576 C.2     1  UNL1        0.0000
   3726 C          20.4543   16.5855   13.5584 C.3     1  UNL1        0.0000
   3727 C          22.7457   12.6365   20.1204 C.ar    1  UNL1        0.0000
   3728 C          24.1708   10.2064   20.5427 C.ar    1  UNL1        0.0000
   3729 C          27.1864   18.9996   19.9490 C.3     1  UNL1        0.0000
   3730 C          19.9744    3.6659   20.6673 C.ar    1  UNL1        0.0000
   3731 C          28.9715    8.2509   14.8755 C.ar    1  UNL1        0.0000
   3732 C          18.0324   14.5085   25.8422 C.ar    1  UNL1        0.0000
   3733 C          33.3268   14.7248   14.7665 C.3     1  UNL1        0.0000
   3734 C          13.7600    8.0113   25.6533 C.ar    1  UNL1        0.0000
   3735 C          29.2687   17.6928   20.0492 C.3     1  UNL1        0.0000
   3736 C          17.8930    4.9326   20.5631 C.ar    1  UNL1        0.0000
   3737 C          24.7942   11.2898   19.9505 C.ar    1  UNL1        0.0000
   3738 C          22.1210   11.5117   20.7094 C.ar    1  UNL1        0.0000
   3739 C          28.5540    7.2169   25.6711 C.3     1  UNL1        0.0000
   3740 C          18.5106   15.4957   14.7263 C.ar    1  UNL1        0.0000
   3741 C          24.2280    0.7242   25.8020 C.ar    1  UNL1        0.0000
   3742 C          22.7570   22.0055   14.9372 C.ar    1  UNL1        0.0000
   3743 N          22.0388   13.8018   19.9887 N.pl3   1  UNL1        0.0000
   3744 N          22.6235   21.3998   16.1541 N.pl3   1  UNL1        0.0000
   3745 N          28.0859    6.8482   24.4390 N.3     1  UNL1        0.0000
   3746 N          30.0159   16.5715   19.8127 N.3     1  UNL1        0.0000
   3747 N          29.2253   12.7534   21.2287 N.3     1  UNL1        0.0000
   3748 N          27.2056    3.1677   22.9735 N.pl3   1  UNL1        0.0000
   3749 O          28.7757   13.1862   18.6541 O.2     1  UNL1        0.0000
   3750 O          18.1582    9.4923   21.9039 O.3     1  UNL1        0.0000
   3751 O          25.2300    4.8210   23.5804 O.3     1  UNL1        0.0000
   3752 O          21.7403   17.8787   17.0214 O.3     1  UNL1        0.0000
   3753 O          23.0950   17.0303   18.6226 O.3     1  UNL1        0.0000
   3754 O          23.9818    5.7457   21.9449 O.3     1  UNL1        0.0000
   3755 O          30.1116   12.2338   17.1028 O.2     1  UNL1        0.0000
   3756 O          16.9830   10.5862   23.4984 O.3     1  UNL1        0.0000
   3757 O          27.4403   12.5566   16.3049 O.3     1  UNL1        0.0000
   3758 O          19.6327   10.1464   24.1904 O.3     1  UNL1        0.0000
   3759 O          28.8535   14.5730   16.2380 O.3     1  UNL1        0.0000
   3760 O          18.1442    8.1980   24.3746 O.3     1  UNL1        0.0000
   3761 O          22.5840    5.0148   24.1973 O.3     1  UNL1        0.0000
   3762 O          24.3864   17.7463   16.3340 O.3     1  UNL1        0.0000
   3763 O          23.8206    7.1261   24.4505 O.3     1  UNL1        0.0000
   3764 O          23.2296   15.5786   16.1762 O.3     1  UNL1        0.0000
   3765 O          26.0816   13.3999   18.7357 O.3     1  UNL1        0.0000
   3766 O          20.8579    9.2560   21.7555 O.3     1  UNL1        0.0000
   3767 O          27.8624   15.7279   18.5111 O.2     1  UNL1        0.0000
   3768 O          19.1561    6.8699   22.1393 O.3     1  UNL1        0.0000
   3769 O          24.2417    3.5296   25.8916 O.3     1  UNL1        0.0000
   3770 O          22.6840   19.1452   14.7440 O.3     1  UNL1        0.0000
   3771 O          26.0371    5.8528   25.8093 O.2     1  UNL1        0.0000
   3772 O          20.9911   16.7507   14.7127 O.3     1  UNL1        0.0000
   3773 O          26.0041   16.9835   18.4839 O.2     1  UNL1        0.0000
   3774 O          21.1314    5.8028   22.0029 O.3     1  UNL1        0.0000
   3775 O          24.2155   14.6663   18.7232 O.3     1  UNL1        0.0000
   3776 O          22.8377    8.1740   21.9105 O.3     1  UNL1        0.0000
   3777 O          30.9397   13.3522   14.7021 O.2     1  UNL1        0.0000
   3778 O          16.1027    9.5138   25.8250 O.3     1  UNL1        0.0000
   3779 O          29.1693   11.0072   14.7800 O.3     1  UNL1        0.0000
   3780 O          18.0164   11.7496   25.8724 O.3     1  UNL1        0.0000
   3781 O          25.9148   15.0529   16.4655 O.3     1  UNL1        0.0000
   3782 O          21.0933    7.6877   24.0714 O.3     1  UNL1        0.0000
   3783 O          28.3312   13.4826   13.6509 O.3     1  UNL1        0.0000
   3784 O          23.5548   16.7004   13.5661 O.3     1  UNL1        0.0000
   3785 N          23.0469   10.1115   27.2449 N.pl3  40  UNL40       0.0000
   3786 N          23.9740   10.0831   25.2634 N.pl3  40  UNL40       0.0000
   3787 C          22.0590   10.4344   26.3282 C.2    40  UNL40       0.0000
   3788 C          22.6426   10.4203   25.0858 C.2    40  UNL40       0.0000
   3789 C          25.4296   11.3281   23.6765 C.3    40  UNL40       0.0000
   3790 C          22.8952   10.1027   28.7103 C.3    40  UNL40       0.0000
   3791 C          24.1989    9.8975   26.5762 C.3    40  UNL40       0.0000
   3792 C          24.9861    9.9611   24.1900 C.3    40  UNL40       0.0000
   3793 H          21.0347   10.6246   26.6280 H      40  UNL40       0.0000
   3794 H          22.2129   10.6195   24.1117 H      40  UNL40       0.0000
   3795 H          24.5903   11.8777   23.2304 H      40  UNL40       0.0000
   3796 H          23.3570   11.0044   29.1279 H      40  UNL40       0.0000
   3797 H          25.8706   11.9363   24.4760 H      40  UNL40       0.0000
   3798 H          21.8258   10.0990   28.9441 H      40  UNL40       0.0000
   3799 H          26.1783   11.1887   22.8840 H      40  UNL40       0.0000
   3800 H          24.5328    9.3509   23.3995 H      40  UNL40       0.0000
   3801 H          23.3649    9.2002   29.1214 H      40  UNL40       0.0000
   3802 H          25.1418    9.6068   27.0221 H      40  UNL40       0.0000
   3803 H          25.8159    9.3801   24.6101 H      40  UNL40       0.0000
   3804 N          29.5485   18.3813   30.0527 N.3    40  UNL40       0.0000
   3805 C          27.5849   18.9315   28.1379 C.3    40  UNL40       0.0000
   3806 C          29.7136   15.7539   29.6269 C.3    40  UNL40       0.0000
   3807 O          29.7124   20.4664   28.4927 O.2    40  UNL40       0.0000
   3808 O          28.0125   20.2747   30.3312 O.2    40  UNL40       0.0000
   3809 O          31.7230   17.1948   30.4771 O.2    40  UNL40       0.0000
   3810 O          31.0088   17.4944   28.0748 O.2    40  UNL40       0.0000
   3811 F          26.6247   18.2566   28.8255 F      40  UNL40       0.0000
   3812 F          26.9937   19.9647   27.4744 F      40  UNL40       0.0000
   3813 F          28.1114   18.0929   27.2144 F      40  UNL40       0.0000
   3814 F          30.4314   14.7475   29.0551 F      40  UNL40       0.0000
   3815 F          29.4997   15.4186   30.9317 F      40  UNL40       0.0000
   3816 F          28.5114   15.7978   28.9953 F      40  UNL40       0.0000
   3817 S          28.8525   19.6217   29.3388 S.O2   40  UNL40       0.0000
   3818 S          30.6671   17.3743   29.4851 S.O2   40  UNL40       0.0000
   3819 TI         13.1897    2.4229   38.4555 Ti      1  UNL1        0.0000
   3820 TI         24.2677    5.4856   28.8448 Ti      1  UNL1        0.0000
   3821 TI         17.7346   -0.8919   36.5596 Ti      1  UNL1        0.0000
   3822 TI         19.6755    8.7994   30.7364 Ti      1  UNL1        0.0000
   3823 TI         18.0029    9.6878   28.7693 Ti      1  UNL1        0.0000
   3824 TI         19.2058   -2.0566   38.5288 Ti      1  UNL1        0.0000
   3825 TI         14.6369    1.1225   36.5564 Ti      1  UNL1        0.0000
   3826 TI         22.5519    6.5293   30.6935 Ti      1  UNL1        0.0000
   3827 H          19.8375    1.7909   34.0795 H       1  UNL1        0.0000
   3828 H          16.1519   -3.8790   34.3652 H       1  UNL1        0.0000
   3829 H          21.3014   11.5852   32.9664 H       1  UNL1        0.0000
   3830 H          13.2022    6.4431   38.2873 H      40  UNL40       0.0000
   3831 H          24.0938    1.3555   29.1544 H       1  UNL1        0.0000
   3832 H           9.4368    0.8104   38.1065 H      40  UNL40       0.0000
   3833 H          27.9402    6.9634   29.0335 H       1  UNL1        0.0000
   3834 H          19.4372   -6.2128   38.2243 H      40  UNL40       0.0000
   3835 H          14.0993    8.3039   29.0355 H       1  UNL1        0.0000
   3836 H          20.9768    3.7484   32.9939 H       1  UNL1        0.0000
   3837 H          16.2236    4.0926   34.3799 H       1  UNL1        0.0000
   3838 H          12.4856   -1.6463   34.1762 H       1  UNL1        0.0000
   3839 H          18.8685    8.2642   26.8485 H       1  UNL1        0.0000
   3840 H          23.2476    6.9498   27.0193 H       1  UNL1        0.0000
   3841 H          16.6092    0.7831   38.1254 H       1  UNL1        0.0000
   3842 H          20.6073    7.0493   29.1405 H       1  UNL1        0.0000
   3843 H          19.8434   -2.2370   33.0811 H       1  UNL1        0.0000
   3844 H          17.5043    9.9512   34.2370 H       1  UNL1        0.0000
   3845 H          10.1611    4.2327   36.0515 H       1  UNL1        0.0000
   3846 H          27.1040    3.5350   31.3256 H       1  UNL1        0.0000
   3847 H          12.6242    2.5836   32.9382 H       1  UNL1        0.0000
   3848 H          15.0745   11.8763   31.2563 H       1  UNL1        0.0000
   3849 H          16.1783    6.2893   33.4661 H       1  UNL1        0.0000
   3850 H          17.5917    7.0535   32.7693 H       1  UNL1        0.0000
   3851 H          17.8381   12.9055   29.5569 H       1  UNL1        0.0000
   3852 H          24.0577   -0.6986   30.3540 H       1  UNL1        0.0000
   3853 H          23.6355   -0.1970   36.9806 H      40  UNL40       0.0000
   3854 H          22.2842   -1.0048   37.7482 H      40  UNL40       0.0000
   3855 H          26.1597    9.1371   33.3281 H       1  UNL1        0.0000
   3856 H          24.7881    8.4055   32.5193 H       1  UNL1        0.0000
   3857 H          24.2872    5.4957   35.5733 H       1  UNL1        0.0000
   3858 H          23.7916    5.7622   33.9100 H       1  UNL1        0.0000
   3859 H          23.2018   -4.8230   36.5272 H       1  UNL1        0.0000
   3860 H          21.8660   -3.8306   37.0882 H       1  UNL1        0.0000
   3861 C          24.9397    4.9842   31.6901 C.2     1  UNL1        0.0000
   3862 C          12.3568    2.7898   35.6365 C.3     1  UNL1        0.0000
   3863 C          20.1012   -2.4754   35.6904 C.3     1  UNL1        0.0000
   3864 C          17.2158   10.2308   31.6043 C.3     1  UNL1        0.0000
   3865 C          25.7723    4.4117   32.7584 C.2     1  UNL1        0.0000
   3866 C          11.4658    3.3657   34.5922 C.ar    1  UNL1        0.0000
   3867 C          20.9517   -3.1314   34.6837 C.ar    1  UNL1        0.0000
   3868 C          16.3699   10.8546   32.6607 C.ar    1  UNL1        0.0000
   3869 C          25.4718    4.6011   34.1471 C.3     1  UNL1        0.0000
   3870 C          11.7515    3.1635   33.2246 C.ar    1  UNL1        0.0000
   3871 C          22.0380   -3.9953   35.0445 C.ar    1  UNL1        0.0000
   3872 C          15.2910   11.6936   32.3051 C.ar    1  UNL1        0.0000
   3873 C          16.6667   10.6030   33.9960 C.ar    1  UNL1        0.0000
   3874 C          20.6763   -2.8959   33.3167 C.ar    1  UNL1        0.0000
   3875 C          26.9105    3.6583   32.3887 C.3     1  UNL1        0.0000
   3876 C          10.3535    4.1003   34.9886 C.ar    1  UNL1        0.0000
   3877 C          19.2600    5.0290   33.0810 C.ar    1  UNL1        0.0000
   3878 C          17.9589    2.8440   34.2765 C.ar    1  UNL1        0.0000
   3879 C          23.0509   10.3466   32.9866 C.2     1  UNL1        0.0000
   3880 C          14.3829   -2.6737   34.3314 C.ar    1  UNL1        0.0000
   3881 C          24.2063    1.4378   27.0199 C.ar    1  UNL1        0.0000
   3882 C          17.9413   13.8005   27.0630 C.ar    1  UNL1        0.0000
   3883 C          27.8931    6.8673   26.8938 C.2     1  UNL1        0.0000
   3884 C          14.3006    8.3702   26.8828 C.ar    1  UNL1        0.0000
   3885 C          19.9825    6.1082   32.3867 C.3     1  UNL1        0.0000
   3886 C          17.2619    1.6964   34.9292 C.3     1  UNL1        0.0000
   3887 C          22.3779    9.3078   32.1985 C.2     1  UNL1        0.0000
   3888 C          15.0285   -1.5825   35.1127 C.3     1  UNL1        0.0000
   3889 C          24.2599    2.9268   27.0231 C.3     1  UNL1        0.0000
   3890 C          17.9229   12.3327   27.0169 C.3     1  UNL1        0.0000
   3891 C          26.6041    6.1583   26.9186 C.2     1  UNL1        0.0000
   3892 C          15.5988    9.1057   26.9194 C.3     1  UNL1        0.0000
   3893 C          17.8902    5.1567   33.4814 C.ar    1  UNL1        0.0000
   3894 C          19.3152    2.7267   33.9037 C.ar    1  UNL1        0.0000
   3895 C          22.3309   11.5199   33.3100 C.3     1  UNL1        0.0000
   3896 C          15.1188   -3.8138   34.0283 C.ar    1  UNL1        0.0000
   3897 C          24.1160    0.7711   28.2365 C.ar    1  UNL1        0.0000
   3898 C          13.1769    7.0288   39.2032 C.2    40  UNL40       0.0000
   3899 C          28.4713    7.2450   28.1275 C.3     1  UNL1        0.0000
   3900 C           8.9045    0.5316   39.0143 C.2    40  UNL40       0.0000
   3901 C          24.4132   10.2130   33.4102 C.3     1  UNL1        0.0000
   3902 C          13.0375   -2.5471   33.9241 C.ar    1  UNL1        0.0000
   3903 C          19.9386    3.8100   33.3115 C.ar    1  UNL1        0.0000
   3904 C          17.2655    4.0320   34.0704 C.ar    1  UNL1        0.0000
   3905 C          23.6985   -0.2628   39.0321 C.3    40  UNL40       0.0000
   3906 C          13.6551    8.0160   28.0873 C.ar    1  UNL1        0.0000
   3907 C          19.3725   -6.7555   39.1630 C.2    40  UNL40       0.0000
   3908 C          17.9015   14.5257   28.2982 C.ar    1  UNL1        0.0000
   3909 N          17.1833    6.3221   33.3497 N.pl3   1  UNL1        0.0000
   3910 N          17.7679   13.9201   29.5151 N.pl3   1  UNL1        0.0000
   3911 N          23.2303   -0.6315   37.8000 N.3    40  UNL40       0.0000
   3912 N          25.1604    9.0918   33.1737 N.3     1  UNL1        0.0000
   3913 N          24.3698    5.2736   34.5897 N.3     1  UNL1        0.0000
   3914 N          22.3501   -4.3120   36.3345 N.pl3   1  UNL1        0.0000
   3915 O          23.9201    5.7065   32.0150 O.2     1  UNL1        0.0000
   3916 O          13.3027    2.0125   35.2649 O.3     1  UNL1        0.0000
   3917 O          20.3745   -2.6587   36.9414 O.3     1  UNL1        0.0000
   3918 O          16.8848   10.3990   30.3824 O.3     1  UNL1        0.0000
   3919 O          18.2395    9.5505   31.9836 O.3     1  UNL1        0.0000
   3920 O          19.1263   -1.7341   35.3059 O.3     1  UNL1        0.0000
   3921 O          25.2561    4.7541   30.4638 O.2     1  UNL1        0.0000
   3922 O          12.1275    3.1064   36.8594 O.3     1  UNL1        0.0000
   3923 O          22.5847    5.0769   29.6659 O.3     1  UNL1        0.0000
   3924 O          14.7772    2.6667   37.5514 O.3     1  UNL1        0.0000
   3925 O          23.9980    7.0932   29.5990 O.3     1  UNL1        0.0000
   3926 O          13.2887    0.7183   37.7356 O.3     1  UNL1        0.0000
   3927 O          17.7285   -2.4649   37.5583 O.3     1  UNL1        0.0000
   3928 O          19.5309   10.2666   29.6950 O.3     1  UNL1        0.0000
   3929 O          18.9651   -0.3537   37.8115 O.3     1  UNL1        0.0000
   3930 O          18.3741    8.0988   29.5372 O.3     1  UNL1        0.0000
   3931 O          21.2261    5.9201   32.0967 O.3     1  UNL1        0.0000
   3932 O          16.0024    1.7762   35.1165 O.3     1  UNL1        0.0000
   3933 O          23.0069    8.2482   31.8721 O.2     1  UNL1        0.0000
   3934 O          14.3005   -0.6099   35.5003 O.3     1  UNL1        0.0000
   3935 O          19.3862   -3.9501   39.2526 O.3     1  UNL1        0.0000
   3936 O          17.8284   11.6654   28.1050 O.3     1  UNL1        0.0000
   3937 O          21.1816   -1.6269   39.1703 O.3     1  UNL1        0.0000
   3938 O          16.1356    9.2709   28.0737 O.3     1  UNL1        0.0000
   3939 O          21.1486    9.5038   31.8449 O.2     1  UNL1        0.0000
   3940 O          16.2759   -1.6769   35.3639 O.3     1  UNL1        0.0000
   3941 O          19.3599    7.1865   32.0842 O.3     1  UNL1        0.0000
   3942 O          17.9822    0.6942   35.2715 O.3     1  UNL1        0.0000
   3943 O          26.0841    5.8725   28.0631 O.2     1  UNL1        0.0000
   3944 O          11.2472    2.0340   39.1860 O.3     1  UNL1        0.0000
   3945 O          24.3138    3.5275   28.1410 O.3     1  UNL1        0.0000
   3946 O          13.1609    4.2699   39.2334 O.3     1  UNL1        0.0000
   3947 O          21.0592    7.5732   29.8265 O.3     1  UNL1        0.0000
   3948 O          16.2377    0.2079   37.4324 O.3     1  UNL1        0.0000
   3949 O          23.4757    6.0029   27.0119 O.3     1  UNL1        0.0000
   3950 O          18.6993    9.2207   26.9271 O.3     1  UNL1        0.0000
   3951 N          18.1913    2.6318   40.6059 N.pl3  40  UNL40       0.0000
   3952 N          19.1185    2.6034   38.6244 N.pl3  40  UNL40       0.0000
   3953 C          17.2034    2.9546   39.6892 C.2    40  UNL40       0.0000
   3954 C          17.7871    2.9406   38.4468 C.2    40  UNL40       0.0000
   3955 C          20.5740    3.8484   37.0375 C.3    40  UNL40       0.0000
   3956 C          18.0397    2.6229   42.0713 C.3    40  UNL40       0.0000
   3957 C          19.3433    2.4178   39.9372 C.3    40  UNL40       0.0000
   3958 C          20.1306    2.4813   37.5510 C.3    40  UNL40       0.0000
   3959 H          16.1791    3.1449   39.9890 H      40  UNL40       0.0000
   3960 H          17.3574    3.1398   37.4727 H      40  UNL40       0.0000
   3961 H          19.7348    4.3979   36.5914 H      40  UNL40       0.0000
   3962 H          18.5014    3.5246   42.4889 H      40  UNL40       0.0000
   3963 H          21.0150    4.4566   37.8370 H      40  UNL40       0.0000
   3964 H          16.9702    2.6192   42.3051 H      40  UNL40       0.0000
   3965 H          21.3228    3.7090   36.2450 H      40  UNL40       0.0000
   3966 H          19.6772    1.8711   36.7605 H      40  UNL40       0.0000
   3967 H          18.5094    1.7205   42.4824 H      40  UNL40       0.0000
   3968 H          20.2863    2.1270   40.3831 H      40  UNL40       0.0000
   3969 H          20.9604    1.9004   37.9711 H      40  UNL40       0.0000
   3970 N          24.6930   10.9015   43.4137 N.3    40  UNL40       0.0000
   3971 C          22.7294   11.4518   41.4989 C.3    40  UNL40       0.0000
   3972 C          24.8581    8.2741   42.9879 C.3    40  UNL40       0.0000
   3973 O          24.8568   12.9867   41.8537 O.2    40  UNL40       0.0000
   3974 O          23.1570   12.7950   43.6922 O.2    40  UNL40       0.0000
   3975 O          26.8674    9.7151   43.8381 O.2    40  UNL40       0.0000
   3976 O          26.1533   10.0146   41.4358 O.2    40  UNL40       0.0000
   3977 F          21.7691   10.7768   42.1865 F      40  UNL40       0.0000
   3978 F          22.1382   12.4849   40.8354 F      40  UNL40       0.0000
   3979 F          23.2559   10.6132   40.5754 F      40  UNL40       0.0000
   3980 F          25.5758    7.2677   42.4161 F      40  UNL40       0.0000
   3981 F          24.6441    7.9389   44.2927 F      40  UNL40       0.0000
   3982 F          23.6558    8.3181   42.3563 F      40  UNL40       0.0000
   3983 S          23.9970   12.1420   42.6998 S.O2   40  UNL40       0.0000
   3984 S          25.8115    9.8945   42.8461 S.O2   40  UNL40       0.0000
   3985 TI         16.7639   32.5478   11.7321 Ti      1  UNL1        0.0000
   3986 TI         27.8419   35.6105    2.1214 Ti      1  UNL1        0.0000
   3987 TI         21.3088   29.2330    9.8362 Ti      1  UNL1        0.0000
   3988 TI         23.2497   38.9243    4.0130 Ti      1  UNL1        0.0000
   3989 TI         21.5770   39.8127    2.0459 Ti      1  UNL1        0.0000
   3990 TI         22.7800   28.0683   11.8054 Ti      1  UNL1        0.0000
   3991 TI         18.2111   31.2475    9.8330 Ti      1  UNL1        0.0000
   3992 TI         26.1261   36.6543    3.9701 Ti      1  UNL1        0.0000
   3993 H          23.4117   31.9158    7.3561 H       1  UNL1        0.0000
   3994 H          19.7261   26.2459    7.6418 H       1  UNL1        0.0000
   3995 H          24.8756   41.7101    6.2430 H       1  UNL1        0.0000
   3996 H          16.7764   36.5681   11.5639 H       1  UNL1        0.0000
   3997 H          27.6680   31.4805    2.4310 H       1  UNL1        0.0000
   3998 H          13.0110   30.9354   11.3831 H       1  UNL1        0.0000
   3999 H          31.5144   37.0883    2.3101 H       1  UNL1        0.0000
   4000 H          23.0114   23.9121   11.5009 H       1  UNL1        0.0000
   4001 H          17.6735   38.4289    2.3121 H       1  UNL1        0.0000
   4002 H          24.5510   33.8733    6.2705 H       1  UNL1        0.0000
   4003 H          19.7978   34.2175    7.6564 H       1  UNL1        0.0000
   4004 H          16.0598   28.4787    7.4528 H       1  UNL1        0.0000
   4005 H          22.4427   38.3891    0.1251 H       1  UNL1        0.0000
   4006 H          26.8218   37.0747    0.2959 H       1  UNL1        0.0000
   4007 H          20.1834   30.9080   11.4020 H       1  UNL1        0.0000
   4008 H          24.1815   37.1742    2.4171 H       1  UNL1        0.0000
   4009 H          23.4176   27.8880    6.3577 H       1  UNL1        0.0000
   4010 H          21.0785   40.0762    7.5136 H       1  UNL1        0.0000
   4011 H          13.7352   34.3576    9.3281 H       1  UNL1        0.0000
   4012 H          30.6782   33.6600    4.6022 H       1  UNL1        0.0000
   4013 H          16.1984   32.7085    6.2148 H       1  UNL1        0.0000
   4014 H          18.6487   42.0013    4.5329 H       1  UNL1        0.0000
   4015 H          19.7525   36.4143    6.7427 H       1  UNL1        0.0000
   4016 H          21.1659   37.1784    6.0459 H       1  UNL1        0.0000
   4017 H          21.4123   43.0304    2.8335 H       1  UNL1        0.0000
   4018 H          27.6319   29.4263    3.6306 H       1  UNL1        0.0000
   4019 H          27.2097   29.9279   10.2572 H       1  UNL1        0.0000
   4020 H          25.8584   29.1201   11.0248 H       1  UNL1        0.0000
   4021 H          29.7339   39.2621    6.6047 H       1  UNL1        0.0000
   4022 H          28.3623   38.5304    5.7959 H       1  UNL1        0.0000
   4023 H          27.8614   35.6206    8.8499 H       1  UNL1        0.0000
   4024 H          27.3658   35.8871    7.1866 H       1  UNL1        0.0000
   4025 H          26.7760   25.3020    9.8037 H       1  UNL1        0.0000
   4026 H          25.4402   26.2944   10.3648 H       1  UNL1        0.0000
   4027 C          28.5139   35.1091    4.9667 C.2     1  UNL1        0.0000
   4028 C          15.9310   32.9148    8.9131 C.3     1  UNL1        0.0000
   4029 C          23.6754   27.6496    8.9670 C.3     1  UNL1        0.0000
   4030 C          20.7900   40.3557    4.8809 C.2     1  UNL1        0.0000
   4031 C          29.3465   34.5367    6.0350 C.2     1  UNL1        0.0000
   4032 C          15.0400   33.4906    7.8687 C.ar    1  UNL1        0.0000
   4033 C          24.5258   26.9935    7.9603 C.ar    1  UNL1        0.0000
   4034 C          19.9441   40.9795    5.9373 C.2     1  UNL1        0.0000
   4035 C          29.0460   34.7261    7.4237 C.3     1  UNL1        0.0000
   4036 C          15.3257   33.2884    6.5012 C.ar    1  UNL1        0.0000
   4037 C          25.6122   26.1297    8.3211 C.ar    1  UNL1        0.0000
   4038 C          18.8652   41.8186    5.5817 C.3     1  UNL1        0.0000
   4039 C          20.2409   40.7279    7.2726 C.3     1  UNL1        0.0000
   4040 C          24.2505   27.2290    6.5933 C.ar    1  UNL1        0.0000
   4041 C          30.4847   33.7833    5.6653 C.3     1  UNL1        0.0000
   4042 C          13.9277   34.2252    8.2651 C.ar    1  UNL1        0.0000
   4043 C          22.8342   35.1539    6.3576 C.ar    1  UNL1        0.0000
   4044 C          21.5331   32.9690    7.5531 C.ar    1  UNL1        0.0000
   4045 C          26.6251   40.4715    6.2632 C.2     1  UNL1        0.0000
   4046 C          17.9571   27.4512    7.6080 C.ar    1  UNL1        0.0000
   4047 C          27.7805   31.5628    0.2965 C.2     1  UNL1        0.0000
   4048 C          21.5155   43.9254    0.3395 C.2     1  UNL1        0.0000
   4049 C          31.4673   36.9923    0.1704 C.2     1  UNL1        0.0000
   4050 C          17.8748   38.4952    0.1594 C.2     1  UNL1        0.0000
   4051 C          23.5567   36.2332    5.6633 C.3     1  UNL1        0.0000
   4052 C          20.8361   31.8213    8.2058 C.3     1  UNL1        0.0000
   4053 C          25.9521   39.4327    5.4751 C.2     1  UNL1        0.0000
   4054 C          18.6027   28.5425    8.3893 C.3     1  UNL1        0.0000
   4055 C          27.8341   33.0517    0.2997 C.2     1  UNL1        0.0000
   4056 C          21.4971   42.4576    0.2935 C.2     1  UNL1        0.0000
   4057 C          30.1783   36.2832    0.1952 C.2     1  UNL1        0.0000
   4058 C          19.1730   39.2307    0.1960 C.2     1  UNL1        0.0000
   4059 C          21.4644   35.2817    6.7580 C.ar    1  UNL1        0.0000
   4060 C          22.8894   32.8516    7.1802 C.ar    1  UNL1        0.0000
   4061 C          25.9051   41.6448    6.5866 C.3     1  UNL1        0.0000
   4062 C          18.6930   26.3111    7.3049 C.ar    1  UNL1        0.0000
   4063 C          27.6902   30.8961    1.5131 C.2     1  UNL1        0.0000
   4064 C          16.7511   37.1537   12.4797 C.3     1  UNL1        0.0000
   4065 C          32.0455   37.3700    1.4041 C.3     1  UNL1        0.0000
   4066 C          12.4787   30.6565   12.2909 C.ar    1  UNL1        0.0000
   4067 C          27.9874   40.3380    6.6868 C.3     1  UNL1        0.0000
   4068 C          16.6117   27.5778    7.2006 C.ar    1  UNL1        0.0000
   4069 C          23.5128   33.9350    6.5881 C.ar    1  UNL1        0.0000
   4070 C          20.8397   34.1569    7.3470 C.ar    1  UNL1        0.0000
   4071 C          27.2727   29.8621   12.3087 C.3     1  UNL1        0.0000
   4072 C          17.2293   38.1409    1.3639 C.2     1  UNL1        0.0000
   4073 C          22.9467   23.3694   12.4396 C.ar    1  UNL1        0.0000
   4074 C          21.4757   44.6507    1.5748 C.2     1  UNL1        0.0000
   4075 N          20.7575   36.4470    6.6263 N.pl3   1  UNL1        0.0000
   4076 N          21.3421   44.0450    2.7917 N.2     1  UNL1        0.0000
   4077 N          26.8045   29.4934   11.0766 N.3     1  UNL1        0.0000
   4078 N          28.7346   39.2167    6.4503 N.3     1  UNL1        0.0000
   4079 N          27.9440   35.3986    7.8663 N.3     1  UNL1        0.0000
   4080 N          25.9243   25.8129    9.6111 N.pl3   1  UNL1        0.0000
   4081 O          27.4943   35.8314    5.2916 O.2     1  UNL1        0.0000
   4082 O          16.8769   32.1375    8.5415 O.3     1  UNL1        0.0000
   4083 O          23.9487   27.4662   10.2180 O.3     1  UNL1        0.0000
   4084 O          20.4590   40.5239    3.6590 O.2     1  UNL1        0.0000
   4085 O          21.8136   39.6755    5.2602 O.2     1  UNL1        0.0000
   4086 O          22.7005   28.3909    8.5825 O.3     1  UNL1        0.0000
   4087 O          28.8303   34.8790    3.7404 O.2     1  UNL1        0.0000
   4088 O          15.7017   33.2314   10.1360 O.3     1  UNL1        0.0000
   4089 O          26.1589   35.2018    2.9425 O.3     1  UNL1        0.0000
   4090 O          18.3514   32.7916   10.8280 O.3     1  UNL1        0.0000
   4091 O          27.5722   37.2182    2.8756 O.3     1  UNL1        0.0000
   4092 O          16.8629   30.8432   11.0122 O.3     1  UNL1        0.0000
   4093 O          21.3027   27.6600   10.8349 O.3     1  UNL1        0.0000
   4094 O          23.1051   40.3915    2.9716 O.3     1  UNL1        0.0000
   4095 O          22.5393   29.7713   11.0881 O.3     1  UNL1        0.0000
   4096 O          21.9483   38.2238    2.8138 O.3     1  UNL1        0.0000
   4097 O          24.8003   36.0451    5.3733 O.3     1  UNL1        0.0000
   4098 O          19.5766   31.9012    8.3931 O.3     1  UNL1        0.0000
   4099 O          26.5811   38.3731    5.1487 O.2     1  UNL1        0.0000
   4100 O          17.8747   29.5151    8.7769 O.3     1  UNL1        0.0000
   4101 O          22.9604   26.1748   12.5292 O.3     1  UNL1        0.0000
   4102 O          21.4026   41.7904    1.3816 O.2     1  UNL1        0.0000
   4103 O          24.7558   28.4980   12.4469 O.2     1  UNL1        0.0000
   4104 O          19.7098   39.3959    1.3503 O.2     1  UNL1        0.0000
   4105 O          24.7228   39.6287    5.1215 O.2     1  UNL1        0.0000
   4106 O          19.8501   28.4480    8.6405 O.3     1  UNL1        0.0000
   4107 O          22.9341   37.3115    5.3608 O.3     1  UNL1        0.0000
   4108 O          21.5564   30.8192    8.5481 O.3     1  UNL1        0.0000
   4109 O          29.6583   35.9974    1.3397 O.2     1  UNL1        0.0000
   4110 O          14.8214   32.1590   12.4626 O.3     1  UNL1        0.0000
   4111 O          27.8879   33.6524    1.4176 O.2     1  UNL1        0.0000
   4112 O          16.7351   34.3948   12.5100 O.2     1  UNL1        0.0000
   4113 O          24.6334   37.6981    3.1031 O.3     1  UNL1        0.0000
   4114 O          19.8119   30.3329   10.7090 O.3     1  UNL1        0.0000
   4115 O          27.0499   36.1278    0.2885 O.3     1  UNL1        0.0000
   4116 O          22.2735   39.3456    0.2037 O.3     1  UNL1        0.0000
   4117 N          21.7655   32.7567   13.8825 N.pl3  40  UNL40       0.0000
   4118 N          22.6927   32.7283   11.9010 N.pl3  40  UNL40       0.0000
   4119 C          20.7776   33.0796   12.9658 C.2    40  UNL40       0.0000
   4120 C          21.3613   33.0655   11.7234 C.2    40  UNL40       0.0000
   4121 C          24.1482   33.9733   10.3141 C.3    40  UNL40       0.0000
   4122 C          21.6139   32.7479   15.3479 C.3    40  UNL40       0.0000
   4123 C          22.9175   32.5427   13.2138 C.3    40  UNL40       0.0000
   4124 C          23.7048   32.6063   10.8276 C.3    40  UNL40       0.0000
   4125 H          19.7533   33.2698   13.2655 H      40  UNL40       0.0000
   4126 H          20.9316   33.2647   10.7493 H      40  UNL40       0.0000
   4127 H          23.3090   34.5229    9.8680 H      40  UNL40       0.0000
   4128 H          22.0756   33.6496   15.7655 H      40  UNL40       0.0000
   4129 H          24.5892   34.5815   11.1136 H      40  UNL40       0.0000
   4130 H          20.5444   32.7442   15.5817 H      40  UNL40       0.0000
   4131 H          24.8970   33.8339    9.5216 H      40  UNL40       0.0000
   4132 H          23.2514   31.9961   10.0370 H      40  UNL40       0.0000
   4133 H          22.0836   31.8454   15.7590 H      40  UNL40       0.0000
   4134 H          23.8605   32.2520   13.6597 H      40  UNL40       0.0000
   4135 H          24.5345   32.0253   11.2477 H      40  UNL40       0.0000
   4136 N          28.2672   41.0265   16.6903 N.3    40  UNL40       0.0000
   4137 C          26.3036   41.5767   14.7755 C.3    40  UNL40       0.0000
   4138 C          28.4323   38.3991   16.2645 C.3    40  UNL40       0.0000
   4139 O          28.4310   43.1116   15.1303 O.2    40  UNL40       0.0000
   4140 O          26.7312   42.9199   16.9688 O.2    40  UNL40       0.0000
   4141 O          30.4416   39.8400   17.1147 O.2    40  UNL40       0.0000
   4142 O          29.7275   40.1396   14.7124 O.2    40  UNL40       0.0000
   4143 F          25.3433   40.9018   15.4631 F      40  UNL40       0.0000
   4144 F          25.7124   42.6099   14.1120 F      40  UNL40       0.0000
   4145 F          26.8301   40.7381   13.8520 F      40  UNL40       0.0000
   4146 F          29.1500   37.3927   15.6927 F      40  UNL40       0.0000
   4147 F          28.2183   38.0638   17.5692 F      40  UNL40       0.0000
   4148 F          27.2300   38.4430   15.6329 F      40  UNL40       0.0000
   4149 S          27.5712   42.2669   15.9764 S.O2   40  UNL40       0.0000
   4150 S          29.3857   40.0195   16.1227 S.O2   40  UNL40       0.0000
   4151 TI         11.9084   25.0681   25.0931 Ti      1  UNL1        0.0000
   4152 TI         22.9864   28.1308   15.4824 Ti      1  UNL1        0.0000
   4153 TI         16.4533   21.7533   23.1972 Ti      1  UNL1        0.0000
   4154 TI         18.3941   31.4446   17.3740 Ti      1  UNL1        0.0000
   4155 TI         16.7215   32.3330   15.4069 Ti      1  UNL1        0.0000
   4156 TI         17.9245   20.5886   25.1664 Ti      1  UNL1        0.0000
   4157 TI         13.3556   23.7677   23.1940 Ti      1  UNL1        0.0000
   4158 TI         21.2705   29.1745   17.3311 Ti      1  UNL1        0.0000
   4159 H          18.5562   24.4361   20.7171 H       1  UNL1        0.0000
   4160 H          14.8706   18.7662   21.0028 H       1  UNL1        0.0000
   4161 H          20.0200   34.2304   19.6040 H       1  UNL1        0.0000
   4162 H          11.9208   29.0883   24.9249 H       1  UNL1        0.0000
   4163 H          22.8125   24.0007   15.7920 H       1  UNL1        0.0000
   4164 H           8.1554   23.4556   24.7441 H       1  UNL1        0.0000
   4165 H          26.6589   29.6086   15.6711 H       1  UNL1        0.0000
   4166 H          18.1558   16.4324   24.8619 H       1  UNL1        0.0000
   4167 H          12.8179   30.9491   15.6731 H       1  UNL1        0.0000
   4168 H          19.6955   26.3936   19.6315 H       1  UNL1        0.0000
   4169 H          14.9422   26.7378   21.0174 H       1  UNL1        0.0000
   4170 H          11.2042   20.9989   20.8137 H       1  UNL1        0.0000
   4171 H          17.5872   30.9094   13.4861 H       1  UNL1        0.0000
   4172 H          21.9663   29.5950   13.6569 H       1  UNL1        0.0000
   4173 H          15.3278   23.4283   24.7630 H       1  UNL1        0.0000
   4174 H          19.3260   29.6945   15.7781 H       1  UNL1        0.0000
   4175 H          18.5621   20.4082   19.7187 H       1  UNL1        0.0000
   4176 H          16.2230   32.5964   20.8746 H       1  UNL1        0.0000
   4177 H           8.8797   26.8779   22.6891 H       1  UNL1        0.0000
   4178 H          25.8227   26.1802   17.9632 H       1  UNL1        0.0000
   4179 H          11.3429   25.2288   19.5758 H       1  UNL1        0.0000
   4180 H          13.7932   34.5215   17.8939 H       1  UNL1        0.0000
   4181 H          14.8970   28.9345   20.1037 H       1  UNL1        0.0000
   4182 H          16.3104   29.6987   19.4069 H       1  UNL1        0.0000
   4183 H          16.5567   35.5507   16.1945 H       1  UNL1        0.0000
   4184 H          22.7763   21.9466   16.9915 H       1  UNL1        0.0000
   4185 H          22.3541   22.4482   23.6182 H       1  UNL1        0.0000
   4186 H          21.0029   21.6404   24.3858 H       1  UNL1        0.0000
   4187 H          24.8784   31.7823   19.9657 H       1  UNL1        0.0000
   4188 H          23.5068   31.0507   19.1569 H       1  UNL1        0.0000
   4189 H          23.0058   28.1409   22.2109 H       1  UNL1        0.0000
   4190 H          22.5102   28.4074   20.5476 H       1  UNL1        0.0000
   4191 H          21.9205   17.8222   23.1647 H       1  UNL1        0.0000
   4192 H          20.5847   18.8146   23.7258 H       1  UNL1        0.0000
   4193 C          23.6584   27.6294   18.3277 C.2     1  UNL1        0.0000
   4194 C          11.0755   25.4350   22.2741 C.3     1  UNL1        0.0000
   4195 C          18.8199   20.1698   22.3280 C.3     1  UNL1        0.0000
   4196 C          15.9345   32.8760   18.2419 C.2     1  UNL1        0.0000
   4197 C          24.4910   27.0569   19.3960 C.2     1  UNL1        0.0000
   4198 C          10.1844   26.0109   21.2297 C.ar    1  UNL1        0.0000
   4199 C          19.6703   19.5138   21.3213 C.ar    1  UNL1        0.0000
   4200 C          15.0886   33.4998   19.2983 C.2     1  UNL1        0.0000
   4201 C          24.1905   27.2463   20.7847 C.3     1  UNL1        0.0000
   4202 C          10.4702   25.8087   19.8622 C.ar    1  UNL1        0.0000
   4203 C          20.7567   18.6499   21.6821 C.ar    1  UNL1        0.0000
   4204 C          14.0097   34.3388   18.9427 C.3     1  UNL1        0.0000
   4205 C          15.3853   33.2482   20.6336 C.3     1  UNL1        0.0000
   4206 C          19.3950   19.7493   19.9543 C.ar    1  UNL1        0.0000
   4207 C          25.6291   26.3035   19.0263 C.3     1  UNL1        0.0000
   4208 C           9.0722   26.7455   21.6261 C.ar    1  UNL1        0.0000
   4209 C          17.9786   27.6742   19.7186 C.ar    1  UNL1        0.0000
   4210 C          16.6776   25.4892   20.9141 C.ar    1  UNL1        0.0000
   4211 C          21.7696   32.9918   19.6242 C.2     1  UNL1        0.0000
   4212 C          13.1016   19.9715   20.9690 C.ar    1  UNL1        0.0000
   4213 C          22.9249   24.0830   13.6575 C.ar    1  UNL1        0.0000
   4214 C          16.6600   36.4457   13.7005 C.2     1  UNL1        0.0000
   4215 C          26.6117   29.5125   13.5314 C.2     1  UNL1        0.0000
   4216 C          13.0193   31.0154   13.5204 C.ar    1  UNL1        0.0000
   4217 C          18.7011   28.7534   19.0243 C.3     1  UNL1        0.0000
   4218 C          15.9806   24.3416   21.5668 C.3     1  UNL1        0.0000
   4219 C          21.0966   31.9530   18.8361 C.2     1  UNL1        0.0000
   4220 C          13.7472   21.0627   21.7503 C.3     1  UNL1        0.0000
   4221 C          22.9786   25.5720   13.6607 C.3     1  UNL1        0.0000
   4222 C          16.6415   34.9779   13.6545 C.2     1  UNL1        0.0000
   4223 C          25.3227   28.8035   13.5562 C.2     1  UNL1        0.0000
   4224 C          14.3175   31.7509   13.5570 C.3     1  UNL1        0.0000
   4225 C          16.6089   27.8019   20.1190 C.ar    1  UNL1        0.0000
   4226 C          18.0339   25.3719   20.5412 C.ar    1  UNL1        0.0000
   4227 C          21.0496   34.1651   19.9476 C.3     1  UNL1        0.0000
   4228 C          13.8375   18.8314   20.6659 C.ar    1  UNL1        0.0000
   4229 C          22.8346   23.4163   14.8741 C.ar    1  UNL1        0.0000
   4230 C          11.8956   29.6740   25.8407 C.3     1  UNL1        0.0000
   4231 C          27.1900   29.8902   14.7651 C.3     1  UNL1        0.0000
   4232 C           7.6231   23.1768   25.6519 C.ar    1  UNL1        0.0000
   4233 C          23.1319   32.8582   20.0478 C.3     1  UNL1        0.0000
   4234 C          11.7562   20.0981   20.5616 C.ar    1  UNL1        0.0000
   4235 C          18.6573   26.4552   19.9491 C.ar    1  UNL1        0.0000
   4236 C          15.9841   26.6772   20.7080 C.ar    1  UNL1        0.0000
   4237 C          22.4171   22.3824   25.6697 C.3     1  UNL1        0.0000
   4238 C          12.3738   30.6612   14.7249 C.ar    1  UNL1        0.0000
   4239 C          18.0912   15.8897   25.8006 C.ar    1  UNL1        0.0000
   4240 C          16.6202   37.1709   14.9358 C.2     1  UNL1        0.0000
   4241 N          15.9020   28.9673   19.9873 N.pl3   1  UNL1        0.0000
   4242 N          16.4866   36.5653   16.1527 N.2     1  UNL1        0.0000
   4243 N          21.9490   22.0137   24.4376 N.3     1  UNL1        0.0000
   4244 N          23.8791   31.7370   19.8113 N.3     1  UNL1        0.0000
   4245 N          23.0885   27.9188   21.2273 N.3     1  UNL1        0.0000
   4246 N          21.0688   18.3332   22.9721 N.pl3   1  UNL1        0.0000
   4247 O          22.6388   28.3517   18.6526 O.2     1  UNL1        0.0000
   4248 O          12.0214   24.6577   21.9025 O.3     1  UNL1        0.0000
   4249 O          19.0931   19.9865   23.5790 O.3     1  UNL1        0.0000
   4250 O          15.6035   33.0442   17.0200 O.2     1  UNL1        0.0000
   4251 O          16.9581   32.1957   18.6212 O.2     1  UNL1        0.0000
   4252 O          17.8450   20.9111   21.9435 O.3     1  UNL1        0.0000
   4253 O          23.9747   27.3993   17.1014 O.2     1  UNL1        0.0000
   4254 O          10.8462   25.7517   23.4970 O.3     1  UNL1        0.0000
   4255 O          21.3034   27.7221   16.3035 O.3     1  UNL1        0.0000
   4256 O          13.4958   25.3119   24.1890 O.3     1  UNL1        0.0000
   4257 O          22.7167   29.7384   16.2366 O.3     1  UNL1        0.0000
   4258 O          12.0073   23.3635   24.3732 O.3     1  UNL1        0.0000
   4259 O          16.4472   20.1803   24.1959 O.3     1  UNL1        0.0000
   4260 O          18.2495   32.9118   16.3326 O.3     1  UNL1        0.0000
   4261 O          17.6837   22.2915   24.4491 O.3     1  UNL1        0.0000
   4262 O          17.0928   30.7440   16.1748 O.3     1  UNL1        0.0000
   4263 O          19.9447   28.5653   18.7343 O.3     1  UNL1        0.0000
   4264 O          14.7211   24.4214   21.7541 O.3     1  UNL1        0.0000
   4265 O          21.7256   30.8934   18.5096 O.2     1  UNL1        0.0000
   4266 O          13.0192   22.0353   22.1379 O.3     1  UNL1        0.0000
   4267 O          18.1049   18.6951   25.8902 O.3     1  UNL1        0.0000
   4268 O          16.5471   34.3106   14.7426 O.2     1  UNL1        0.0000
   4269 O          19.9003   21.0183   25.8079 O.2     1  UNL1        0.0000
   4270 O          14.8543   31.9161   14.7113 O.3     1  UNL1        0.0000
   4271 O          19.8673   32.1490   18.4825 O.2     1  UNL1        0.0000
   4272 O          14.9945   20.9683   22.0015 O.3     1  UNL1        0.0000
   4273 O          18.0786   29.8317   18.7217 O.3     1  UNL1        0.0000
   4274 O          16.7009   23.3394   21.9091 O.3     1  UNL1        0.0000
   4275 O          24.8028   28.5177   14.7006 O.2     1  UNL1        0.0000
   4276 O           9.9658   24.6792   25.8236 O.3     1  UNL1        0.0000
   4277 O          23.0324   26.1727   14.7786 O.3     1  UNL1        0.0000
   4278 O          11.8795   26.9151   25.8710 O.2     1  UNL1        0.0000
   4279 O          19.7779   30.2184   16.4641 O.3     1  UNL1        0.0000
   4280 O          14.9564   22.8531   24.0700 O.3     1  UNL1        0.0000
   4281 O          22.1944   28.6481   13.6495 O.3     1  UNL1        0.0000
   4282 O          17.4179   31.8659   13.5647 O.3     1  UNL1        0.0000
   4283 N          16.9100   25.2770   27.2435 N.pl3  40  UNL40       0.0000
   4284 N          17.8371   25.2486   25.2620 N.pl3  40  UNL40       0.0000
   4285 C          15.9221   25.5998   26.3268 C.2    40  UNL40       0.0000
   4286 C          16.5057   25.5858   25.0844 C.2    40  UNL40       0.0000
   4287 C          19.2927   26.4936   23.6751 C.3    40  UNL40       0.0000
   4288 C          16.7584   25.2681   28.7089 C.3    40  UNL40       0.0000
   4289 C          18.0620   25.0630   26.5748 C.3    40  UNL40       0.0000
   4290 C          18.8492   25.1265   24.1886 C.3    40  UNL40       0.0000
   4291 H          14.8978   25.7901   26.6265 H      40  UNL40       0.0000
   4292 H          16.0760   25.7850   24.1103 H      40  UNL40       0.0000
   4293 H          18.4534   27.0431   23.2290 H      40  UNL40       0.0000
   4294 H          17.2201   26.1698   29.1265 H      40  UNL40       0.0000
   4295 H          19.7337   27.1018   24.4746 H      40  UNL40       0.0000
   4296 H          15.6889   25.2644   28.9427 H      40  UNL40       0.0000
   4297 H          20.0414   26.3542   22.8826 H      40  UNL40       0.0000
   4298 H          18.3959   24.5163   23.3980 H      40  UNL40       0.0000
   4299 H          17.2281   24.3657   29.1200 H      40  UNL40       0.0000
   4300 H          19.0050   24.7722   27.0207 H      40  UNL40       0.0000
   4301 H          19.6790   24.5456   24.6087 H      40  UNL40       0.0000
   4302 N          23.4117   33.5467   30.0513 N.3    40  UNL40       0.0000
   4303 C          21.4481   34.0970   28.1365 C.3    40  UNL40       0.0000
   4304 C          23.5768   30.9193   29.6255 C.3    40  UNL40       0.0000
   4305 O          23.5755   35.6319   28.4913 O.2    40  UNL40       0.0000
   4306 O          21.8756   35.4402   30.3298 O.2    40  UNL40       0.0000
   4307 O          25.5861   32.3603   30.4757 O.2    40  UNL40       0.0000
   4308 O          24.8720   32.6598   28.0734 O.2    40  UNL40       0.0000
   4309 F          20.4878   33.4220   28.8241 F      40  UNL40       0.0000
   4310 F          20.8568   35.1301   27.4730 F      40  UNL40       0.0000
   4311 F          21.9745   33.2584   27.2130 F      40  UNL40       0.0000
   4312 F          24.2945   29.9129   29.0537 F      40  UNL40       0.0000
   4313 F          23.3628   30.5841   30.9302 F      40  UNL40       0.0000
   4314 F          22.3745   30.9633   28.9939 F      40  UNL40       0.0000
   4315 S          22.7156   34.7872   29.3374 S.O2   40  UNL40       0.0000
   4316 S          24.5302   32.5397   29.4837 S.O2   40  UNL40       0.0000
   4317 TI          7.0529   17.5883   38.4541 Ti      1  UNL1        0.0000
   4318 TI         18.1308   20.6511   28.8434 Ti      1  UNL1        0.0000
   4319 TI         11.5977   14.2735   36.5582 Ti      1  UNL1        0.0000
   4320 TI         13.5386   23.9648   30.7350 Ti      1  UNL1        0.0000
   4321 TI         11.8660   24.8533   28.7679 Ti      1  UNL1        0.0000
   4322 TI         13.0690   13.1088   38.5274 Ti      1  UNL1        0.0000
   4323 TI          8.5001   16.2880   36.5550 Ti      1  UNL1        0.0000
   4324 TI         16.4150   21.6948   30.6921 Ti      1  UNL1        0.0000
   4325 H          13.7006   16.9563   34.0781 H       1  UNL1        0.0000
   4326 H          10.0151   11.2865   34.3638 H       1  UNL1        0.0000
   4327 H          15.1645   26.7507   32.9650 H       1  UNL1        0.0000
   4328 H           7.0653   21.6086   38.2859 H      40  UNL40       0.0000
   4329 H          17.9569   16.5210   29.1530 H       1  UNL1        0.0000
   4330 H           3.2999   15.9759   38.1051 H      40  UNL40       0.0000
   4331 H          21.8033   22.1289   29.0321 H       1  UNL1        0.0000
   4332 H          13.3003    8.9526   38.2229 H      40  UNL40       0.0000
   4333 H           7.9624   23.4694   29.0341 H       1  UNL1        0.0000
   4334 H          14.8399   18.9139   32.9925 H       1  UNL1        0.0000
   4335 H          10.0867   19.2580   34.3784 H       1  UNL1        0.0000
   4336 H           6.3487   13.5192   34.1747 H       1  UNL1        0.0000
   4337 H          12.7317   23.4296   26.8471 H       1  UNL1        0.0000
   4338 H          17.1108   22.1153   27.0179 H       1  UNL1        0.0000
   4339 H          10.4723   15.9485   38.1240 H       1  UNL1        0.0000
   4340 H          14.4705   22.2147   29.1391 H       1  UNL1        0.0000
   4341 H          13.7065   12.9285   33.0797 H       1  UNL1        0.0000
   4342 H          11.3675   25.1167   34.2356 H       1  UNL1        0.0000
   4343 H           4.0242   19.3982   36.0501 H       1  UNL1        0.0000
   4344 H          20.9671   18.7005   31.3242 H       1  UNL1        0.0000
   4345 H           6.4874   17.7490   32.9368 H       1  UNL1        0.0000
   4346 H           8.9377   27.0418   31.2549 H       1  UNL1        0.0000
   4347 H          10.0415   21.4548   33.4647 H       1  UNL1        0.0000
   4348 H          11.4548   22.2189   32.7679 H       1  UNL1        0.0000
   4349 H          11.7012   28.0709   29.5555 H       1  UNL1        0.0000
   4350 H          17.9208   14.4669   30.3525 H       1  UNL1        0.0000
   4351 H          17.4986   14.9685   36.9792 H      40  UNL40       0.0000
   4352 H          16.1474   14.1606   37.7468 H      40  UNL40       0.0000
   4353 H          20.0229   24.3026   33.3267 H       1  UNL1        0.0000
   4354 H          18.6512   23.5710   32.5179 H       1  UNL1        0.0000
   4355 H          18.1503   20.6611   35.5719 H       1  UNL1        0.0000
   4356 H          17.6547   20.9277   33.9086 H       1  UNL1        0.0000
   4357 H          17.0650   10.3425   36.5257 H       1  UNL1        0.0000
   4358 H          15.7291   11.3349   37.0868 H       1  UNL1        0.0000
   4359 C          18.8028   20.1496   31.6887 C.2     1  UNL1        0.0000
   4360 C           6.2200   17.9553   35.6351 C.3     1  UNL1        0.0000
   4361 C          13.9643   12.6901   35.6890 C.3     1  UNL1        0.0000
   4362 C          11.0789   25.3962   31.6029 C.2     1  UNL1        0.0000
   4363 C          19.6354   19.5772   32.7570 C.2     1  UNL1        0.0000
   4364 C           5.3289   18.5311   34.5907 C.ar    1  UNL1        0.0000
   4365 C          14.8148   12.0341   34.6823 C.ar    1  UNL1        0.0000
   4366 C          10.2331   26.0200   32.6593 C.2     1  UNL1        0.0000
   4367 C          19.3349   19.7666   34.1457 C.3     1  UNL1        0.0000
   4368 C           5.6147   18.3289   33.2232 C.ar    1  UNL1        0.0000
   4369 C          15.9012   11.1702   35.0431 C.ar    1  UNL1        0.0000
   4370 C           9.1542   26.8591   32.3037 C.3     1  UNL1        0.0000
   4371 C          10.5298   25.7684   33.9945 C.3     1  UNL1        0.0000
   4372 C          14.5394   12.2695   33.3153 C.ar    1  UNL1        0.0000
   4373 C          20.7736   18.8238   32.3873 C.3     1  UNL1        0.0000
   4374 C           4.2167   19.2657   34.9871 C.ar    1  UNL1        0.0000
   4375 C          13.1231   20.1944   33.0796 C.ar    1  UNL1        0.0000
   4376 C          11.8220   18.0095   34.2751 C.ar    1  UNL1        0.0000
   4377 C          16.9141   25.5121   32.9852 C.2     1  UNL1        0.0000
   4378 C           8.2461   12.4917   34.3300 C.ar    1  UNL1        0.0000
   4379 C          18.0694   16.6033   27.0185 C.ar    1  UNL1        0.0000
   4380 C          11.8044   28.9659   27.0615 C.2     1  UNL1        0.0000
   4381 C          21.7562   22.0328   26.8924 C.2     1  UNL1        0.0000
   4382 C           8.1637   23.5357   26.8814 C.ar    1  UNL1        0.0000
   4383 C          13.8456   21.2737   32.3853 C.3     1  UNL1        0.0000
   4384 C          11.1251   16.8618   34.9278 C.3     1  UNL1        0.0000
   4385 C          16.2410   24.4732   32.1971 C.2     1  UNL1        0.0000
   4386 C           8.8917   13.5830   35.1113 C.3     1  UNL1        0.0000
   4387 C          18.1230   18.0923   27.0217 C.3     1  UNL1        0.0000
   4388 C          11.7860   27.4981   27.0155 C.2     1  UNL1        0.0000
   4389 C          20.4672   21.3237   26.9172 C.2     1  UNL1        0.0000
   4390 C           9.4620   24.2712   26.9179 C.3     1  UNL1        0.0000
   4391 C          11.7533   20.3222   33.4800 C.ar    1  UNL1        0.0000
   4392 C          13.1784   17.8921   33.9022 C.ar    1  UNL1        0.0000
   4393 C          16.1941   26.6853   33.3086 C.3     1  UNL1        0.0000
   4394 C           8.9820   11.3516   34.0269 C.ar    1  UNL1        0.0000
   4395 C          17.9791   15.9366   28.2351 C.ar    1  UNL1        0.0000
   4396 C           7.0400   22.1943   39.2017 C.3    46  UNL46       0.0000
   4397 C          22.3344   22.4105   28.1261 C.3     1  UNL1        0.0000
   4398 C           2.7676   15.6970   39.0129 C.2    40  UNL40       0.0000
   4399 C          18.2764   25.3785   33.4088 C.3     1  UNL1        0.0000
   4400 C           6.9006   12.6183   33.9226 C.ar    1  UNL1        0.0000
   4401 C          13.8018   18.9755   33.3101 C.ar    1  UNL1        0.0000
   4402 C          11.1286   19.1975   34.0690 C.ar    1  UNL1        0.0000
   4403 C          17.5616   14.9026   39.0307 C.3    40  UNL40       0.0000
   4404 C           7.5182   23.1815   28.0858 C.ar    1  UNL1        0.0000
   4405 C          13.2356    8.4099   39.1616 C.2    40  UNL40       0.0000
   4406 C          11.7646   29.6912   28.2968 C.2     1  UNL1        0.0000
   4407 N          11.0464   21.4876   33.3483 N.pl3   1  UNL1        0.0000
   4408 N          11.6311   29.0855   29.5137 N.2     1  UNL1        0.0000
   4409 N          17.0935   14.5339   37.7986 N.3    40  UNL40       0.0000
   4410 N          19.0235   24.2572   33.1723 N.3     1  UNL1        0.0000
   4411 N          18.2329   20.4391   34.5883 N.3     1  UNL1        0.0000
   4412 N          16.2132   10.8535   36.3331 N.pl3   1  UNL1        0.0000
   4413 O          17.7833   20.8719   32.0136 O.2     1  UNL1        0.0000
   4414 O           7.1658   17.1780   35.2635 O.3     1  UNL1        0.0000
   4415 O          14.2376   12.5067   36.9400 O.3     1  UNL1        0.0000
   4416 O          10.7479   25.5644   30.3810 O.2     1  UNL1        0.0000
   4417 O          12.1026   24.7160   31.9822 O.2     1  UNL1        0.0000
   4418 O          12.9894   13.4314   35.3045 O.3     1  UNL1        0.0000
   4419 O          19.1192   19.9196   30.4624 O.2     1  UNL1        0.0000
   4420 O           5.9907   18.2719   36.8580 O.3     1  UNL1        0.0000
   4421 O          16.4479   20.2424   29.6645 O.3     1  UNL1        0.0000
   4422 O           8.6403   17.8321   37.5500 O.3     1  UNL1        0.0000
   4423 O          17.8612   22.2587   29.5976 O.3     1  UNL1        0.0000
   4424 O           7.1518   15.8838   37.7342 O.3     1  UNL1        0.0000
   4425 O          11.5916   12.7006   37.5569 O.3     1  UNL1        0.0000
   4426 O          13.3940   25.4320   29.6936 O.3     1  UNL1        0.0000
   4427 O          12.8282   14.8118   37.8101 O.3     1  UNL1        0.0000
   4428 O          12.2372   23.2643   29.5358 O.3     1  UNL1        0.0000
   4429 O          15.0892   21.0856   32.0953 O.3     1  UNL1        0.0000
   4430 O           9.8656   16.9417   35.1151 O.3     1  UNL1        0.0000
   4431 O          16.8701   23.4137   31.8706 O.2     1  UNL1        0.0000
   4432 O           8.1637   14.5556   35.4989 O.3     1  UNL1        0.0000
   4433 O          13.2493   11.2153   39.2512 O.3     1  UNL1        0.0000
   4434 O          11.6916   26.8309   28.1036 O.2     1  UNL1        0.0000
   4435 O          15.0447   13.5385   39.1689 O.3     1  UNL1        0.0000
   4436 O           9.9987   24.4364   28.0723 O.3     1  UNL1        0.0000
   4437 O          15.0117   24.6692   31.8435 O.2     1  UNL1        0.0000
   4438 O          10.1390   13.4885   35.3625 O.3     1  UNL1        0.0000
   4439 O          13.2231   22.3520   32.0827 O.3     1  UNL1        0.0000
   4440 O          11.8453   15.8597   35.2701 O.3     1  UNL1        0.0000
   4441 O          19.9473   21.0379   28.0616 O.2     1  UNL1        0.0000
   4442 O           5.1103   17.1995   39.1846 O.3     1  UNL1        0.0000
   4443 O          18.1769   18.6929   28.1396 O.3     1  UNL1        0.0000
   4444 O           7.0240   19.4354   39.2320 O.3     1  UNL1        0.0000
   4445 O          14.9224   22.7386   29.8251 O.3     1  UNL1        0.0000
   4446 O          10.1009   15.3734   37.4310 O.3     1  UNL1        0.0000
   4447 O          17.3388   21.1683   27.0105 O.3     1  UNL1        0.0000
   4448 O          12.5624   24.3861   26.9257 O.3     1  UNL1        0.0000
   4449 N          12.0545   17.7972   40.6045 N.pl3  40  UNL40       0.0000
   4450 N          12.9816   17.7688   38.6230 N.pl3  40  UNL40       0.0000
   4451 C          11.0666   18.1201   39.6878 C.2    40  UNL40       0.0000
   4452 C          11.6502   18.1061   38.4454 C.2    40  UNL40       0.0000
   4453 C          14.4372   19.0139   37.0361 C.3    40  UNL40       0.0000
   4454 C          11.9029   17.7884   42.0699 C.3    40  UNL40       0.0000
   4455 C          13.2065   17.5833   39.9358 C.3    40  UNL40       0.0000
   4456 C          13.9937   17.6468   37.5495 C.3    40  UNL40       0.0000
   4457 H          10.0423   18.3104   39.9875 H      40  UNL40       0.0000
   4458 H          11.2205   18.3052   37.4713 H      40  UNL40       0.0000
   4459 H          13.5979   19.5634   36.5900 H      40  UNL40       0.0000
   4460 H          12.3646   18.6901   42.4875 H      40  UNL40       0.0000
   4461 H          14.8782   19.6220   37.8356 H      40  UNL40       0.0000
   4462 H          10.8334   17.7847   42.3037 H      40  UNL40       0.0000
   4463 H          15.1859   18.8744   36.2436 H      40  UNL40       0.0000
   4464 H          13.5404   17.0366   36.7590 H      40  UNL40       0.0000
   4465 H          12.3725   16.8859   42.4810 H      40  UNL40       0.0000
   4466 H          14.1494   17.2925   40.3817 H      40  UNL40       0.0000
   4467 H          14.8235   17.0659   37.9697 H      40  UNL40       0.0000
   4468 N          18.5561   26.0670   43.4123 N.3    40  UNL40       0.0000
   4469 C          16.5926   26.6172   41.4975 C.3    40  UNL40       0.0000
   4470 C          18.7212   23.4396   42.9865 C.3    40  UNL40       0.0000
   4471 O          18.7200   28.1522   41.8523 O.2    40  UNL40       0.0000
   4472 O          17.0201   27.9605   43.6908 O.2    40  UNL40       0.0000
   4473 O          20.7306   24.8806   43.8367 O.2    40  UNL40       0.0000
   4474 O          20.0164   25.1801   41.4344 O.2    40  UNL40       0.0000
   4475 F          15.6323   25.9423   42.1851 F      40  UNL40       0.0000
   4476 F          16.0013   27.6504   40.8340 F      40  UNL40       0.0000
   4477 F          17.1190   25.7786   40.5740 F      40  UNL40       0.0000
   4478 F          19.4390   22.4332   42.4147 F      40  UNL40       0.0000
   4479 F          18.5073   23.1043   44.2912 F      40  UNL40       0.0000
   4480 F          17.5190   23.4835   42.3549 F      40  UNL40       0.0000
   4481 S          17.8601   27.3074   42.6984 S.O2   40  UNL40       0.0000
   4482 S          19.6747   25.0600   42.8447 S.O2   40  UNL40       0.0000
@<TRIPOS>BOND
     1  1017  1128    1
     2   519   630    1
     3    21   132    1
     4  1062  1070    2
     5  1062  1084    1
     6   564   572    2
     7   564   586    1
     8    66    74    2
     9    66    88    1
    10  1061  1069    2
    11  1061  1077    1
    12   563   571    2
    13   563   579    1
    14    65    73    2
    15    65    81    1
    16  1069  1121    1
    17  1070  1116    1
    18   571   623    1
    19   572   618    1
    20    73   125    1
    21    74   120    1
    22  1128  1001    1
    23   630   503    1
    24   132     5    1
    25  2511  2622    1
    26  2013  2124    1
    27  1515  1626    1
    28  2556  2564    2
    29  2556  2578    1
    30  2058  2066    2
    31  2058  2080    1
    32  1560  1568    2
    33  1560  1582    1
    34  2555  2563    2
    35  2555  2571    1
    36  2057  2065    2
    37  2057  2073    1
    38  1559  1567    2
    39  1559  1575    1
    40  1127  1018    1
    41  1127   998    1
    42   629   520    1
    43   629   500    1
    44   131    22    1
    45   131     2    1
    46  1068  1060    2
    47  1068  1114    1
    48   570   562    2
    49   570   616    1
    50    72    64    2
    51    72   118    1
    52  1059  1067    2
    53  1059  1075    1
    54   561   569    2
    55   561   577    1
    56    63    71    2
    57    63    79    1
    58  1067  1123    1
    59  2563  2615    1
    60   569   625    1
    61  2564  2610    1
    62  2065  2117    1
    63    71   127    1
    64  2066  2112    1
    65  1567  1619    1
    66  1568  1614    1
    67  2622  2495    1
    68  2124  1997    1
    69  1626  1499    1
    70  4005  4116    1
    71  3507  3618    1
    72  3009  3120    1
    73  1060  1086    1
    74   562   588    1
    75    64    90    1
    76  4050  4058    2
    77  4050  4072    1
    78  3552  3560    2
    79  3552  3574    1
    80  3054  3062    2
    81  3054  3076    1
    82  4049  4057    2
    83  4049  4065    1
    84  3551  3559    2
    85  3551  3567    1
    86  3053  3061    2
    87  3053  3069    1
    88  2621  2512    1
    89  2621  2492    1
    90  2123  2014    1
    91  2123  1994    1
    92  1625  1516    1
    93  1625  1496    1
    94  2562  2554    2
    95  2562  2608    1
    96  2064  2056    2
    97  2064  2110    1
    98  1566  1558    2
    99  1566  1612    1
   100  2553  2561    2
   101  2553  2569    1
   102  2055  2063    2
   103  2055  2071    1
   104  1557  1565    2
   105  1557  1573    1
   106  2561  2617    1
   107  4057  4109    1
   108  2063  2119    1
   109  4058  4104    1
   110  3559  3611    1
   111  1565  1621    1
   112  3560  3606    1
   113  3061  3113    1
   114  3062  3108    1
   115  4116  3989    1
   116  3618  3491    1
   117  3120  2993    1
   118  2554  2580    1
   119  2056  2082    1
   120  1558  1584    1
   121  4115  4006    1
   122  4115  3986    1
   123  3617  3508    1
   124  3617  3488    1
   125  3119  3010    1
   126  3119  2990    1
   127  4056  4048    2
   128  4056  4102    1
   129  3558  3550    2
   130  3558  3604    1
   131  3060  3052    2
   132  3060  3106    1
   133  4047  4055    2
   134  4047  4063    1
   135  3549  3557    2
   136  3549  3565    1
   137  3051  3059    2
   138  3051  3067    1
   139  4055  4111    1
   140  3557  3613    1
   141  3059  3115    1
   142  4048  4074    1
   143  3550  3576    1
   144  3052  3078    1
   145  1121   998    1
   146   623   500    1
   147   125     2    1
   148  1116  1001    1
   149   618   503    1
   150   120     5    1
   151  1084  1013    1
   152   586   515    1
   153    88    17    1
   154  1114  1001    1
   155   616   503    1
   156   118     5    1
   157  1077  2578    2
   158  1077  1011    1
   159   579  2080    2
   160   579   513    1
   161    81  1582    2
   162    81    15    1
   163  1123   998    1
   164   625   500    1
   165   127     2    1
   166  2615  2492    1
   167  2117  1994    1
   168  1619  1496    1
   169  2610  2495    1
   170  2112  1997    1
   171  1614  1499    1
   172  2578  2507    1
   173  2080  2009    1
   174  1582  1511    1
   175  2608  2495    1
   176  2110  1997    1
   177  1612  1499    1
   178  2571  4072    2
   179  2571  2505    1
   180  2073  3574    2
   181  2073  2007    1
   182  1575  3076    2
   183  1575  1509    1
   184  1075   588    2
   185  1075  1009    1
   186   577    90    2
   187   577   511    1
   188    79    13    1
   189  2617  2492    1
   190  2119  1994    1
   191  1621  1496    1
   192  4109  3986    1
   193  3611  3488    1
   194  3113  2990    1
   195  4104  3989    1
   196  3606  3491    1
   197  3108  2993    1
   198  1086  1088    2
   199  4072  4001    1
   200   588   590    1
   201  3574  3503    1
   202    90    92    1
   203  3076  3005    1
   204  4102  3989    1
   205  3604  3491    1
   206  3106  2993    1
   207  4065  3999    1
   208  3567  3501    1
   209  3069  3003    1
   210  2569  2082    2
   211  2569  2503    1
   212  2071  1584    2
   213  2071  2005    1
   214  1573  1507    1
   215  4111  3986    1
   216  3613  3488    1
   217  3115  2990    1
   218  2580  2582    2
   219  2082  2084    1
   220  1584  1586    1
   221  4063  3576    2
   222  4063  3997    1
   223  3565  3078    2
   224  3565  3499    1
   225  3067  3001    1
   226  4074  4076    2
   227  3576  3578    1
   228  3078  3080    1
   229  1001  1108    1
   230  1001  1106    1
   231  1001  1096    1
   232   503   610    1
   233   503   608    1
   234   503   598    1
   235     5   112    1
   236     5   110    1
   237     5   100    1
   238   998  1103    1
   239   998  1101    1
   240   998  1099    1
   241   500   605    1
   242   500   603    1
   243   500   601    1
   244     2   107    1
   245     2   105    1
   246     2   103    1
   247  2495  2602    1
   248  2495  2600    1
   249  2495  2590    1
   250  1997  2104    1
   251  1997  2102    1
   252  1997  2092    1
   253  1499  1606    1
   254  1499  1604    1
   255  1499  1594    1
   256  2492  2597    1
   257  2492  2595    1
   258  2492  2593    1
   259  1994  2099    1
   260  1994  2097    1
   261  1994  2095    1
   262  1496  1601    1
   263  1496  1599    1
   264  1496  1597    1
   265  3989  4096    1
   266  3989  4094    1
   267  3989  4084    1
   268  3491  3598    1
   269  3491  3596    1
   270  3491  3586    1
   271  2993  3100    1
   272  2993  3098    1
   273  2993  3088    1
   274  3986  4091    1
   275  3986  4089    1
   276  3986  4087    1
   277  3488  3593    1
   278  3488  3591    1
   279  3488  3589    1
   280  2990  3095    1
   281  2990  3093    1
   282  2990  3091    1
   283  1020  1125    1
   284   522   627    1
   285    24   129    1
   286  2514  2619    1
   287  2016  2121    1
   288  1518  1623    1
   289  4008  4113    1
   290  3510  3615    1
   291  3012  3117    1
   292  1088  1029    1
   293   590   531    1
   294   590  1030    1
   295    92    33    1
   296    92   532    1
   297  1108  1000    1
   298   610   502    1
   299   112     4    1
   300  1103  1004    1
   301   605   506    1
   302   107     8    1
   303  2582  2523    1
   304  2084  2025    1
   305  2084  2524    1
   306  1586  1527    1
   307  1586  2026    1
   308  2602  2494    1
   309  2104  1996    1
   310  1606  1498    1
   311  1101  1004    1
   312   603   506    1
   313   105     8    1
   314  1106  1000    1
   315   608   502    1
   316   110     4    1
   317  2597  2498    1
   318  2099  2000    1
   319  1601  1502    1
   320  4076  4017    1
   321  3578  3519    1
   322  3578  4018    1
   323  3080  3021    1
   324  3080  3520    1
   325  4096  3988    1
   326  3598  3490    1
   327  3100  2992    1
   328  2595  2498    1
   329  2097  2000    1
   330  1599  1502    1
   331  2600  2494    1
   332  2102  1996    1
   333  1604  1498    1
   334  4091  3992    1
   335  3593  3494    1
   336  3095  2996    1
   337  1125  1004    1
   338   627   506    1
   339   129     8    1
   340  4089  3992    1
   341  3591  3494    1
   342  3093  2996    1
   343  4094  3988    1
   344  3596  3490    1
   345  3098  2992    1
   346  2619  2498    1
   347  2121  2000    1
   348  1623  1502    1
   349  4113  3992    1
   350  3615  3494    1
   351  3117  2996    1
   352  1096  1042    1
   353   598   544    1
   354   100    46    1
   355  1099  1039    1
   356   601   541    1
   357   103    43    1
   358  2590  2536    1
   359  2092  2038    1
   360  1594  1540    1
   361  2593  2533    1
   362  2095  2035    1
   363  1597  1537    1
   364  4084  4030    1
   365  3586  3532    1
   366  3088  3034    1
   367  4087  4027    1
   368  3589  3529    1
   369  3091  3031    1
   370  1004  1111    1
   371  1004  1093    1
   372  1004  1109    1
   373   506   613    1
   374   506   595    1
   375   506   611    1
   376     8   115    1
   377     8    97    1
   378     8   113    1
   379  1000  1117    1
   380  1000  1097    1
   381  1000  1119    1
   382   502   619    1
   383   502   599    1
   384   502   621    1
   385     4   121    1
   386     4   101    1
   387     4   123    1
   388  2498  2605    1
   389  2498  2587    1
   390  2498  2603    1
   391  2000  2107    1
   392  2000  2089    1
   393  2000  2105    1
   394  1502  1609    1
   395  1502  1591    1
   396  1502  1607    1
   397  2494  2611    1
   398  2494  2591    1
   399  2494  2613    1
   400  1996  2113    1
   401  1996  2093    1
   402  1996  2115    1
   403  1498  1615    1
   404  1498  1595    1
   405  1498  1617    1
   406  3992  4099    1
   407  3992  4081    1
   408  3992  4097    1
   409  3494  3601    1
   410  3494  3583    1
   411  3494  3599    1
   412  2996  3103    1
   413  2996  3085    1
   414  2996  3101    1
   415  3988  4105    1
   416  3988  4085    1
   417  3988  4107    1
   418  3490  3607    1
   419  3490  3587    1
   420  3490  3609    1
   421  2992  3109    1
   422  2992  3089    1
   423  2992  3111    1
   424  1026  1050    1
   425   528   552    1
   426    30    54    1
   427  1024  1053    1
   428   526   555    1
   429    28    57    1
   430  2520  2544    1
   431  2022  2046    1
   432  1524  1548    1
   433  2518  2547    1
   434  2020  2049    1
   435  1522  1551    1
   436  4014  4038    1
   437  3516  3540    1
   438  3018  3042    1
   439  4012  4041    1
   440  3514  3543    1
   441  3016  3045    1
   442  1042  1097    1
   443  1042  1046    2
   444   544   599    1
   445   544   548    1
   446    46   101    1
   447    46    50    1
   448  1039  1093    1
   449  1039  1043    1
   450   541   595    1
   451   541   545    1
   452    43    97    1
   453    43    47    1
   454  2536  2591    1
   455  2536  2540    2
   456  2038  2093    1
   457  2038  2042    1
   458  1540  1595    1
   459  1540  1544    1
   460  2533  2587    1
   461  2533  2537    1
   462  2035  2089    1
   463  2035  2039    1
   464  1537  1591    1
   465  1537  1541    1
   466  4030  4085    1
   467  4030  4034    2
   468  3532  3587    1
   469  3532  3536    1
   470  3034  3089    1
   471  3034  3038    1
   472  1117  1065    1
   473   619   567    1
   474   121    69    1
   475  1111  1065    1
   476   613   567    1
   477   115    69    1
   478  4027  4081    1
   479  4027  4031    2
   480  3529  3583    1
   481  3529  3533    2
   482  3031  3085    1
   483  3031  3035    2
   484  2611  2559    1
   485  2113  2061    1
   486  1615  1563    1
   487  2605  2559    1
   488  2107  2061    1
   489  1609  1563    1
   490  4105  4053    1
   491  3607  3555    1
   492  3109  3057    1
   493  4099  4053    1
   494  1119  1063    1
   495  3601  3555    1
   496   621   565    1
   497  3103  3057    1
   498   123    67    1
   499  1109  1063    1
   500   611   565    1
   501   113    67    1
   502  2613  2557    1
   503  2115  2059    1
   504  1617  1561    1
   505  1065  1057    2
   506   567   559    1
   507    69    61    1
   508  2603  2557    1
   509  2105  2059    1
   510  1607  1561    1
   511  4107  4051    1
   512  3609  3553    1
   513  3111  3055    1
   514  2559  2551    2
   515  1050  1046    1
   516  2061  2053    1
   517   552   548   ar
   518   552  1052   ar
   519  1563  1555    1
   520    54    50   ar
   521    54   554   ar
   522  4097  4051    1
   523  3599  3553    1
   524  3101  3055    1
   525  1063  1055    1
   526   565   557    1
   527  1053  1043   ar
   528  1053  2542   ar
   529    67    59    1
   530   555   545   ar
   531   555  2044   ar
   532    57    47   ar
   533    57  1546   ar
   534  4053  4045    2
   535  2544  2540    1
   536  3555  3547    2
   537  2046  2042   ar
   538  2046  2546   ar
   539  3057  3049    2
   540  1548  1544   ar
   541  1548  2048   ar
   542  2557  2549    1
   543  2059  2051    1
   544  2547  2537   ar
   545  2547  4036   ar
   546  1561  1553    1
   547  2049  2039   ar
   548  2049  3538   ar
   549  1551  1541   ar
   550  1551  3040   ar
   551  4038  4034    1
   552  3540  3536   ar
   553  3540  4040   ar
   554  1034  1090    1
   555  3042  3038   ar
   556  3042  3542   ar
   557   536   592    1
   558    38    94    1
   559  4051  4043    1
   560  3553  3545    1
   561  4041  4031    1
   562  3055  3047    1
   563  3543  3533    1
   564  3045  3035    1
   565  2528  2584    1
   566  2030  2086    1
   567  1532  1588    1
   568  1046  1051    1
   569   548   553   ar
   570    50    55   ar
   571  4022  4078    1
   572  3524  3580    1
   573  3026  3082    1
   574  1043  1047   ar
   575   545   549   ar
   576    47    51   ar
   577  2540  2545    1
   578  2042  2047   ar
   579  1544  1549   ar
   580  1028  1087    1
   581   530   589    1
   582    32    91    1
   583  2537  2541   ar
   584  2039  2043   ar
   585  1541  1545   ar
   586  4034  4039    1
   587  3536  3541   ar
   588  3038  3043   ar
   589  2522  2581    1
   590  2024  2083    1
   591  1526  1585    1
   592  1025  1048    1
   593   527   550    1
   594    29    52    1
   595  1007  1073    1
   596   509   575    1
   597    11    77    1
   598  4031  4035    1
   599  3533  3537    1
   600  3035  3039    1
   601  4016  4075    1
   602  3518  3577    1
   603  3020  3079    1
   604  1057  1073    1
   605  1057  1079    1
   606   559   575   ar
   607   559   581   ar
   608    61    77   ar
   609    61    83   ar
   610  1014  1081    1
   611   516   583    1
   612    18    85    1
   613  2519  2542    1
   614  2021  2044    1
   615  1523  1546    1
   616  2501  2567    1
   617  2003  2069    1
   618  1505  1571    1
   619  1055  1081   ar
   620  1055  1071   ar
   621  1021  1052    1
   622   557   583   ar
   623   557   573   ar
   624   523   554    1
   625    59    85   ar
   626    59    75   ar
   627    25    56    1
   628  2551  2567    1
   629  2551  2573    1
   630  2053  2069   ar
   631  2053  2075   ar
   632  1555  1571   ar
   633  1555  1577   ar
   634  2508  2575    1
   635  2010  2077    1
   636  1512  1579    1
   637  4013  4036    1
   638  3515  3538    1
   639  3017  3040    1
   640  1090  1033    1
   641  1090  1079    1
   642   592   535    1
   643   592   581    1
   644    94    37    1
   645    94    83    1
   646  3995  4061    1
   647  3497  3563    1
   648  2999  3065    1
   649  2549  2575   ar
   650  2549  2565   ar
   651  2515  2546    1
   652  2051  2077   ar
   653  2051  2067   ar
   654  2017  2048    1
   655  1553  1579   ar
   656  1553  1569   ar
   657  1519  1550    1
   658  4045  4061    1
   659  4045  4067    1
   660  3547  3563    1
   661  3547  3569    1
   662  3049  3065    1
   663  3049  3071    1
   664  4002  4069    1
   665  3504  3571    1
   666  3006  3073    1
   667  1048  1044    1
   668   550   546    1
   669    52    48    1
   670  2584  2527    1
   671  2584  2573    1
   672  2086  2029    1
   673  2086  2075    1
   674  1588  1531    1
   675  1588  1577    1
   676  4043  4069   ar
   677  4043  4059   ar
   678  4009  4040    1
   679  3545  3571   ar
   680  3545  3561   ar
   681  3511  3542    1
   682  3047  3073   ar
   683  3047  3063   ar
   684  3013  3044    1
   685   575  2574   ar
   686  1081  1072   ar
   687    77  2076   ar
   688   583   574   ar
   689    85    76   ar
   690  1052  1045   ar
   691   554   547   ar
   692    56    49    1
   693  2542  2538   ar
   694  2044  2040   ar
   695  1546  1542   ar
   696  1087  1027    1
   697  1087  1071    1
   698   589   529    1
   699   589   573    1
   700    91    31    1
   701    91    75    1
   702  4078  4021    1
   703  4078  4067    1
   704  3580  3523    1
   705  3580  3569    1
   706  3082  3025    1
   707  3082  3071    1
   708   581  2568   ar
   709    83  2070   ar
   710  2069  4068   ar
   711  2575  2566   ar
   712  1571  3570   ar
   713  2077  2068   ar
   714  1579  1570   ar
   715  2546  2539   ar
   716  2048  2041   ar
   717  1550  1543    1
   718  4036  4032   ar
   719  3538  3534   ar
   720  3040  3036   ar
   721  2581  2521    1
   722  2581  2565    1
   723  2083  2023    1
   724  2083  2067    1
   725  1585  1525    1
   726  1585  1569    1
   727  1071  1082   ar
   728   573   584   ar
   729    75    86   ar
   730  2075  4062   ar
   731  1577  3564   ar
   732  4069  4060   ar
   733  3571  3562   ar
   734  3073  3064   ar
   735  4040  4033   ar
   736  3542  3535   ar
   737  3044  3037    1
   738  4075  4015    1
   739  4075  4059    1
   740  3577  3517    1
   741  3577  3561    1
   742  3079  3019    1
   743  3079  3063    1
   744  2565  2576   ar
   745  2067  2078   ar
   746  1569  1580   ar
   747  4059  4070   ar
   748  3561  3572   ar
   749  3063  3074   ar
   750  1072  1005    1
   751  1072  1056   ar
   752   574   507    1
   753   574   558   ar
   754    76     9    1
   755    76    60   ar
   756  1036  1091    1
   757   538   593    1
   758    40    95    1
   759  1080  1016    1
   760  1080  1058    1
   761   582   518    1
   762   582   560    1
   763    84    20    1
   764    84    62    1
   765  1051  1022    1
   766   553   524    1
   767   553  1049   ar
   768    55    26    1
   769    55   551   ar
   770  2566  2499    1
   771  2566  2550   ar
   772  2068  2001    1
   773  2068  2052   ar
   774  1570  1503    1
   775  1570  1554   ar
   776  2530  2585    1
   777  2032  2087    1
   778  1534  1589    1
   779  1074  1058    1
   780  1074  1006    1
   781   576   560    1
   782   576   508    1
   783  2574  2510    1
   784  2574  2552   ar
   785    78    62    1
   786    78    10    1
   787  2076  2012    1
   788  2076  2054   ar
   789  1578  1514    1
   790  1578  1556    1
   791  1082  1056   ar
   792  1082  1015    1
   793   584   558   ar
   794   584   517    1
   795    86    60   ar
   796    86    19    1
   797  2545  2516    1
   798  2047  2018    1
   799  2047  2543   ar
   800  1549  1520    1
   801  1549  2045   ar
   802  4060  3993    1
   803  4060  4044   ar
   804  3562  3495    1
   805  3562  3546   ar
   806  3064  2997    1
   807  3064  3048   ar
   808  4024  4079    1
   809  3526  3581    1
   810  3028  3083    1
   811  2568  2552   ar
   812  2568  2500    1
   813  2070  2054   ar
   814  2070  2002    1
   815  4068  4004    1
   816  4068  4046   ar
   817  1572  1556    1
   818  1572  1504    1
   819  3570  3506    1
   820  3570  3548   ar
   821  3072  3008    1
   822  3072  3050    1
   823  1047  1091    1
   824  1047  2548   ar
   825   549   593    1
   826   549  2050   ar
   827    51    95    1
   828    51  1552   ar
   829  2576  2550   ar
   830  2576  2509    1
   831  2078  2052   ar
   832  2078  2011    1
   833  1580  1554   ar
   834  1580  1513    1
   835  4039  4010    1
   836  3541  3512    1
   837  3541  4037   ar
   838  3043  3014    1
   839  3043  3539   ar
   840  4062  4046   ar
   841  4062  3994    1
   842  3564  3548   ar
   843  3564  3496    1
   844  3066  3050    1
   845  3066  2998    1
   846  2541  2585    1
   847  2541  4042   ar
   848  2043  2087    1
   849  2043  3544   ar
   850  1545  1589    1
   851  1545  3046   ar
   852  1056  1064    1
   853   558   566    1
   854    60    68    1
   855  4070  4044   ar
   856  4070  4003    1
   857  3572  3546   ar
   858  3572  3505    1
   859  3074  3048   ar
   860  3074  3007    1
   861  1058  1066    2
   862   560   568    2
   863    62    70    2
   864  4035  4079    1
   865  3537  3581    1
   866  3039  3083    1
   867  2550  2558    1
   868  2052  2060    1
   869  1554  1562    1
   870  2552  2560    1
   871  2054  2062    1
   872  1556  1564    2
   873  4044  4052    1
   874  3546  3554    1
   875  3048  3056    1
   876  4046  4054    1
   877  3548  3556    1
   878  3050  3058    2
   879  1091  1035    1
   880   593   537    1
   881  1044  1054    1
   882  1044  1040    2
   883    95    39    1
   884   546   556    1
   885   546   542    2
   886    48    58    1
   887    48    44    2
   888  1045  1049   ar
   889  1045  1041    1
   890   547   551   ar
   891   547   543    1
   892    49    53    1
   893    49    45    2
   894  2585  2529    1
   895  2087  2031    1
   896  2538  2548   ar
   897  2538  2534    1
   898  1589  1533    1
   899  2040  2050   ar
   900  2040  2036    1
   901  1542  1552   ar
   902  1542  1538    1
   903  2539  2543   ar
   904  2539  2535    1
   905  2041  2045   ar
   906  2041  2037    1
   907  1543  1547    1
   908  1543  1539    2
   909  4079  4023    1
   910  3581  3525    1
   911  4032  4042   ar
   912  4032  4028    1
   913  3083  3027    1
   914  3534  3544   ar
   915  3534  3530    1
   916  3036  3046   ar
   917  3036  3032    1
   918  4033  4037   ar
   919  4033  4029    1
   920  3535  3539   ar
   921  3535  3531    1
   922  3037  3041    1
   923  3037  3033    2
   924  1064  1110    1
   925  1064  1120    1
   926   566   612    1
   927   566   622    1
   928    68   114    1
   929    68   124    1
   930  1054  1023    1
   931   556   525    1
   932    58    27    1
   933  2558  2604    1
   934  2558  2614    1
   935  2060  2106    1
   936  2060  2116    1
   937  1562  1608    1
   938  1562  1618    1
   939  1049  1092    1
   940   551   594    1
   941    53    96    1
   942  2548  2517    1
   943  2050  2019    1
   944  1552  1521    1
   945  1066  1118    1
   946  1066  1112    1
   947   568   620    1
   948   568   614    1
   949    70   122    1
   950    70   116    1
   951  1110  1003    1
   952   612   505    1
   953   114     7    1
   954  4052  4098    1
   955  4052  4108    1
   956  3554  3600    1
   957  3554  3610    1
   958  3056  3102    1
   959  3056  3112    1
   960  2543  2586    1
   961  2045  2088    1
   962  1547  1590    1
   963  4042  4011    1
   964  3544  3513    1
   965  3046  3015    1
   966  2560  2612    1
   967  2560  2606    1
   968  2062  2114    1
   969  2062  2108    1
   970  1564  1616    1
   971  1564  1610    1
   972  2604  2497    1
   973  2106  1999    1
   974  1608  1501    1
   975  4037  4080    1
   976  3539  3582    1
   977  3041  3084    1
   978  1094  1040    1
   979  1094  1003    1
   980   596   542    1
   981   596   505    1
   982    98    44    1
   983    98     7    1
   984  1120   999    1
   985   622   501    1
   986   124     3    1
   987  1098  1041    1
   988  1098   999    1
   989   600   543    1
   990   600   501    1
   991   102    45    1
   992   102     3    1
   993  4054  4106    1
   994  4054  4100    1
   995  3556  3608    1
   996  3556  3602    1
   997  3058  3110    1
   998  3058  3104    1
   999  4098  3991    1
  1000  3600  3493    1
  1001  3102  2995    1
  1002  1118   999    1
  1003   620   501    1
  1004   122     3    1
  1005  2588  2534    1
  1006  2588  2497    1
  1007  2090  2036    1
  1008  2090  1999    1
  1009  1592  1538    1
  1010  1592  1501    1
  1011  2614  2493    1
  1012  2116  1995    1
  1013  1618  1497    1
  1014  2592  2535    1
  1015  2592  2493    1
  1016  2094  2037    1
  1017  2094  1995    1
  1018  1596  1539    1
  1019  1596  1497    1
  1020  2612  2493    1
  1021  2114  1995    1
  1022  1616  1497    1
  1023  4082  4028    1
  1024  4082  3991    1
  1025  3584  3530    1
  1026  3584  3493    1
  1027  3086  3032    1
  1028  3086  2995    1
  1029  4108  3987    1
  1030  3610  3489    1
  1031  3112  2991    1
  1032  1112  1003    1
  1033   614   505    1
  1034   116     7    1
  1035  4086  4029    1
  1036  4086  3987    1
  1037  3588  3531    1
  1038  3588  3489    1
  1039  3090  3033    1
  1040  3090  2991    1
  1041  4106  3987    1
  1042  3608  3489    1
  1043  3110  2991    1
  1044  2606  2497    1
  1045  2108  1999    1
  1046  1610  1501    1
  1047  1040  1100    1
  1048   542   602    1
  1049    44   104    1
  1050  1041  1095    1
  1051   543   597    1
  1052    45    99    1
  1053  4100  3991    1
  1054  3602  3493    1
  1055  3104  2995    1
  1056  2534  2594    1
  1057  2036  2096    1
  1058  1538  1598    1
  1059  2535  2589    1
  1060  2037  2091    1
  1061  1539  1593    1
  1062  4028  4088    1
  1063  3530  3590    1
  1064  3032  3092    1
  1065  4029  4083    1
  1066  3531  3585    1
  1067  3033  3087    1
  1068  1143  1133    1
  1069   645   635    1
  1070   147   137    1
  1071  1092  1037    1
  1072  1092  1038    1
  1073   594   539    1
  1074   594   540    1
  1075    96    41    1
  1076    96    42    1
  1077  2637  2627    1
  1078  2139  2129    1
  1079  1641  1631    1
  1080  2586  2531    1
  1081  2586  2532    1
  1082  2088  2033    1
  1083  2088  2034    1
  1084  1590  1535    1
  1085  1590  1536    1
  1086  4131  4121    1
  1087  3633  3623    1
  1088  3135  3125    1
  1089  4080  4025    1
  1090  4080  4026    1
  1091  3582  3527    1
  1092  3582  3528    1
  1093  3084  3029    1
  1094  3084  3030    1
  1095  1003  1126    1
  1096  1003  1102    1
  1097  1003  1104    1
  1098   505   628    1
  1099   505   604    1
  1100   505   606    1
  1101     7   130    1
  1102     7   106    1
  1103     7   108    1
  1104   999  1105    1
  1105   999  1107    1
  1106   501   607    1
  1107   501   609    1
  1108     3   109    1
  1109     3   111    1
  1110  1139  1133    1
  1111   641   635    1
  1112   143   137    1
  1113  2497  2620    1
  1114  2497  2596    1
  1115  2497  2598    1
  1116  1999  2122    1
  1117  1999  2098    1
  1118  1999  2100    1
  1119  1501  1624    1
  1120  1501  1600    1
  1121  1501  1602    1
  1122  2493  2599    1
  1123  2493  2601    1
  1124  1995  2101    1
  1125  1995  2103    1
  1126  1497  1603    1
  1127  1497  1605    1
  1128  2633  2627    1
  1129  2135  2129    1
  1130  1637  1631    1
  1131  1144  1136    1
  1132   646   638    1
  1133   148   140    1
  1134  3991  4114    1
  1135  3991  4090    1
  1136  3991  4092    1
  1137  3493  3616    1
  1138  3493  3592    1
  1139  3493  3594    1
  1140  2995  3118    1
  1141  2995  3094    1
  1142  2995  3096    1
  1143  3987  4093    1
  1144  3987  4095    1
  1145  3489  3595    1
  1146  3489  3597    1
  1147  2991  3097    1
  1148  2991  3099    1
  1149  4127  4121    1
  1150  3629  3623    1
  1151  3131  3125    1
  1152  1100   997    1
  1153   602   499    1
  1154   104     1    1
  1155  2638  2630    1
  1156  2140  2132    1
  1157  1642  1634    1
  1158  1095  1002    1
  1159   597   504    1
  1160    99     6    1
  1161  2594  2491    1
  1162  2096  1993    1
  1163  1598  1495    1
  1164  4132  4124    1
  1165  3634  3626    1
  1166  3136  3128    1
  1167  1031  1089    1
  1168   533   591    1
  1169    35    93    1
  1170  1133  1136    1
  1171  1133  1141    1
  1172   635   638    1
  1173   635   643    1
  1174   137   140    1
  1175   137   145    1
  1176  2589  2496    1
  1177  2091  1998    1
  1178  1593  1500    1
  1179  4088  3985    1
  1180  3590  3487    1
  1181  3092  2989    1
  1182  2525  2583    1
  1183  2027  2085    1
  1184  1529  1587    1
  1185  2627  2630    1
  1186  2627  2635    1
  1187  2129  2132    1
  1188  2129  2137    1
  1189  1631  1634    1
  1190  1631  1639    1
  1191  4083  3990    1
  1192  3585  3492    1
  1193  3087  2994    1
  1194  4019  4077    1
  1195  3521  3579    1
  1196  3023  3081    1
  1197  4121  4124    1
  1198  4121  4129    1
  1199  3623  3626    1
  1200  3623  3631    1
  1201  3125  3128    1
  1202  3125  3133    1
  1203  1126  1019    1
  1204   628   521    1
  1205   130    23    1
  1206  1138  1132    1
  1207   640   634    1
  1208   142   136    1
  1209  2620  2513    1
  1210  2122  2015    1
  1211  1624  1517    1
  1212  1136  1147    1
  1213  1136  1130    1
  1214  1102   997    1
  1215   638   649    1
  1216   638   632    1
  1217   604   499    1
  1218   140   151    1
  1219   140   134    1
  1220   106     1    1
  1221  1105  1002    1
  1222   607   504    1
  1223   109     6    1
  1224  2632  2626    1
  1225  2134  2128    1
  1226  1636  1630    1
  1227  4114  4007    1
  1228  3616  3509    1
  1229  3118  3011    1
  1230  2630  2641    1
  1231  2630  2624    1
  1232  2596  2491    1
  1233  2132  2143    1
  1234  2132  2126    1
  1235  2098  1993    1
  1236  1634  1645    1
  1237  1634  1628    1
  1238  1600  1495    1
  1239  2599  2496    1
  1240  2101  1998    1
  1241  1603  1500    1
  1242  4126  4120    1
  1243  3628  3622    1
  1244  3130  3124    1
  1245  1104   997    1
  1246   606   499    1
  1247   108     1    1
  1248  1032  1089    1
  1249   534   591    1
  1250    36    93    1
  1251  4124  4135    1
  1252  4124  4118    1
  1253  4090  3985    1
  1254  3626  3637    1
  1255  3626  3620    1
  1256  3592  3487    1
  1257  3128  3139    1
  1258  3128  3122    1
  1259  3094  2989    1
  1260  4093  3990    1
  1261  3595  3492    1
  1262  3097  2994    1
  1263  1089  1083    1
  1264   591   585    1
  1265    93    87    1
  1266  1107  1002    1
  1267   609   504    1
  1268   111     6    1
  1269  2598  2491    1
  1270  2100  1993    1
  1271  1602  1495    1
  1272  2526  2583    1
  1273  2028  2085    1
  1274  1530  1587    1
  1275  2583  2577    1
  1276  2085  2079    1
  1277  1587  1581    1
  1278  2601  2496    1
  1279  2103  1998    1
  1280  1605  1500    1
  1281  4092  3985    1
  1282  3594  3487    1
  1283  3096  2989    1
  1284  4020  4077    1
  1285  3522  3579    1
  1286  3024  3081    1
  1287  4077  4071    1
  1288  3579  3573    1
  1289  3081  3075    1
  1290  4095  3990    1
  1291  3597  3492    1
  1292  3099  2994    1
  1293  1010  1078    1
  1294   512   580    1
  1295    14    82    1
  1296  2504  2572    1
  1297  2006  2074    1
  1298  1508  1576    1
  1299  1012  1085    1
  1300   514   587    1
  1301    16    89    1
  1302  1008  1076    1
  1303   510   578    1
  1304    12    80    1
  1305  3998  4066    1
  1306  3500  3568    1
  1307  3002  3070    1
  1308  2506  2579    1
  1309  2008  2081    1
  1310  1510  1583    1
  1311  2502  2570    1
  1312  2004  2072    1
  1313  1506  1574    1
  1314  4000  4073    1
  1315  3502  3575    1
  1316  3004  3077    1
  1317  1132  1130    1
  1318  1132  1131    2
  1319   634   632    1
  1320   634   633    2
  1321   136   134    1
  1322   136   135    2
  1323   997  1122    1
  1324   997  1124    1
  1325   499   624    1
  1326   499   626    1
  1327     1   126    1
  1328     1   128    1
  1329  3996  4064    1
  1330  3498  3566    1
  1331  3000  3068    1
  1332  1002  1115    1
  1333  1002  1113    1
  1334  1002  1293    1
  1335   504   617    1
  1336   504   615    1
  1337   504   795    1
  1338     6   119    1
  1339     6   117    1
  1340     6   297    1
  1341  2626  2624    1
  1342  2626  2625    2
  1343  2128  2126    1
  1344  2128  2127    2
  1345  1630  1628    1
  1346  1630  1629    2
  1347  2491  2616    1
  1348  2491  2618    1
  1349  1993  2118    1
  1350  1993  2120    1
  1351  1495  1620    1
  1352  1495  1622    1
  1353  1130  1135    1
  1354   632   637    1
  1355   134   139    1
  1356  2496  2609    1
  1357  2496  2607    1
  1358  2496  2787    1
  1359  1998  2111    1
  1360  1998  2109    1
  1361  1998  2289    1
  1362  1500  1613    1
  1363  1500  1611    1
  1364  1500  1791    1
  1365  4120  4118    1
  1366  4120  4119    2
  1367  3622  3620    1
  1368  3622  3621    2
  1369  3124  3122    1
  1370  3124  3123    2
  1371  3985  4110    1
  1372  3985  4112    1
  1373  3487  3612    1
  1374  3487  3614    1
  1375  2989  3114    1
  1376  2989  3116    1
  1377  2624  2629    1
  1378  2126  2131    1
  1379  1628  1633    1
  1380  3990  4103    1
  1381  3990  4101    1
  1382  3990  4281    1
  1383  3492  3605    1
  1384  3492  3603    1
  1385  3492  3783    1
  1386  2994  3107    1
  1387  2994  3105    1
  1388  2994  3285    1
  1389  4118  4123    1
  1390  3620  3625    1
  1391  3122  3127    1
  1392  1078  1228    1
  1393   580   730    1
  1394    82   232    1
  1395  1083  2572   ar
  1396  1083  1227   ar
  1397   585  2074   ar
  1398   585   729   ar
  1399    87  1576   ar
  1400    87   231   ar
  1401  2572  2722   ar
  1402  2074  2224   ar
  1403  1576  1726   ar
  1404  2577  4066   ar
  1405  2577  2721   ar
  1406  2079  3568   ar
  1407  2079  2223   ar
  1408  1581  3070   ar
  1409  1581  1725   ar
  1410  1085   578   ar
  1411  1085  1225   ar
  1412   587    80   ar
  1413   587   727   ar
  1414    89   229    1
  1415  1115  1235    1
  1416   617   737    1
  1417   119   239    1
  1418  1122  1236    1
  1419   624   738    1
  1420   126   240    1
  1421  1076  1226    1
  1422   578   728   ar
  1423    80   230   ar
  1424  4066  4216   ar
  1425  3568  3718   ar
  1426  3070  3220   ar
  1427  1124  1234    1
  1428   626   736    1
  1429   128   238    1
  1430  4071  4215    1
  1431  3573  3717    1
  1432  3075  3219    1
  1433  1113  1233    1
  1434   615   735    1
  1435   117   237    1
  1436  2579  2072   ar
  1437  2579  2719   ar
  1438  2081  1574   ar
  1439  2081  2221   ar
  1440  1583  1723    1
  1441  2609  2729    1
  1442  2111  2231    1
  1443  1613  1733    1
  1444  2616  2730    1
  1445  2118  2232    1
  1446  1620  1734    1
  1447  2570  2720    1
  1448  2072  2222   ar
  1449  1574  1724   ar
  1450  2618  2728    1
  1451  2120  2230    1
  1452  1622  1732    1
  1453  2607  2727    1
  1454  2109  2229    1
  1455  1611  1731    1
  1456  4073  3566   ar
  1457  4073  4213   ar
  1458  3575  3068   ar
  1459  3575  3715   ar
  1460  3077  3217    1
  1461  4103  4223    1
  1462  3605  3725    1
  1463  3107  3227    1
  1464  4110  4224    1
  1465  3612  3726    1
  1466  3114  3228    1
  1467  4064  4214    1
  1468  3566  3716   ar
  1469  3068  3218   ar
  1470  4112  4222    1
  1471  3614  3724    1
  1472  3116  3226    1
  1473  4101  4221    1
  1474  3603  3723    1
  1475  3105  3225    1
  1476  1131  1137    1
  1477  1131  1129    1
  1478   633   639    1
  1479   633   631    1
  1480   135   141    1
  1481   135   133    1
  1482  2625  2631    1
  1483  2625  2623    1
  1484  2127  2133    1
  1485  2127  2125    1
  1486  1629  1635    1
  1487  1629  1627    1
  1488  4119  4125    1
  1489  4119  4117    1
  1490  3621  3627    1
  1491  3621  3619    1
  1492  3123  3129    1
  1493  3123  3121    1
  1494  1135  1146    1
  1495  1135  1129    1
  1496   637   648    1
  1497   637   631    1
  1498   139   150    1
  1499   139   133    1
  1500  2629  2640    1
  1501  2629  2623    1
  1502  2131  2142    1
  1503  2131  2125    1
  1504  1633  1644    1
  1505  1633  1627    1
  1506  4123  4134    1
  1507  4123  4117    1
  1508  3625  3636    1
  1509  3625  3619    1
  1510  3127  3138    1
  1511  3127  3121    1
  1512  1183  1294    1
  1513   685   796    1
  1514   187   298    1
  1515  1228  1236    2
  1516  1228  1250    1
  1517   730   738    2
  1518   730   752    1
  1519   232   240    2
  1520   232   254    1
  1521  1227  1235    1
  1522  1227  1243   ar
  1523   729   737    1
  1524   729   745   ar
  1525   231   239    1
  1526   231   247   ar
  1527  1235  1287    1
  1528  1236  1282    1
  1529   737   789    1
  1530   738   784    1
  1531   239   291    1
  1532   240   286    1
  1533  1294  1167    1
  1534   796   669    1
  1535   298   171    1
  1536  2677  2788    1
  1537  2179  2290    1
  1538  1681  1792    1
  1539  2722  2730    1
  1540  2722  2744   ar
  1541  2224  2232    1
  1542  2224  2246   ar
  1543  1726  1734    1
  1544  1726  1748   ar
  1545  2721  2729    1
  1546  2721  2737   ar
  1547  2223  2231    1
  1548  2223  2239   ar
  1549  1725  1733    1
  1550  1725  1741   ar
  1551  1293  1184    1
  1552   795   686    1
  1553   297   188    1
  1554  1234  1226    2
  1555  1234  1280    1
  1556   736   728    1
  1557   736   782    1
  1558   238   230    1
  1559   238   284    1
  1560  1225  1233    1
  1561  1225  1241   ar
  1562   727   735    1
  1563   727   743   ar
  1564   229   237    2
  1565   229   245    1
  1566  1233  1289    1
  1567  2729  2781    1
  1568   735   791    1
  1569  2730  2776    1
  1570  2231  2283    1
  1571   237   293    1
  1572  2232  2278    1
  1573  1733  1785    1
  1574  1734  1780    1
  1575  2788  2661    1
  1576  2290  2163    1
  1577  1792  1665    1
  1578  4171  4282    1
  1579  3673  3784    1
  1580  3175  3286    1
  1581  1226  1252    1
  1582   728   754   ar
  1583   230   256   ar
  1584  4216  4224    1
  1585  4216  4238   ar
  1586  3718  3726    1
  1587  3718  3740   ar
  1588  3220  3228    1
  1589  3220  3242   ar
  1590  4215  4223    2
  1591  4215  4231    1
  1592  3717  3725    2
  1593  3717  3733    1
  1594  3219  3227    2
  1595  3219  3235    1
  1596  2787  2678    1
  1597  2289  2180    1
  1598  1791  1682    1
  1599  2728  2720    2
  1600  2728  2774    1
  1601  2230  2222    1
  1602  2230  2276    1
  1603  1732  1724    1
  1604  1732  1778    1
  1605  2719  2727    1
  1606  2719  2735   ar
  1607  2221  2229    1
  1608  2221  2237   ar
  1609  1723  1731    2
  1610  1723  1739    1
  1611  2727  2783    1
  1612  4223  4275    1
  1613  2229  2285    1
  1614  4224  4270    1
  1615  3725  3777    1
  1616  1731  1787    1
  1617  3726  3772    1
  1618  3227  3279    1
  1619  3228  3274    1
  1620  4282  4155    1
  1621  3784  3657    1
  1622  3286  3159    1
  1623  2720  2746    1
  1624  2222  2248   ar
  1625  1724  1750   ar
  1626  1157  1149    1
  1627   659   651    1
  1628   161   153    1
  1629  4281  4172    1
  1630  3783  3674    1
  1631  3285  3176    1
  1632  4222  4214    2
  1633  4222  4268    1
  1634  3724  3716    1
  1635  3724  3770    1
  1636  3226  3218    1
  1637  3226  3272    1
  1638  4213  4221    1
  1639  4213  4229   ar
  1640  3715  3723    1
  1641  3715  3731   ar
  1642  3217  3225    2
  1643  3217  3233    1
  1644  4221  4277    1
  1645  3723  3779    1
  1646  3225  3281    1
  1647  1129  1134    1
  1648   631   636    1
  1649   133   138    1
  1650  4214  4240    1
  1651  3716  3742   ar
  1652  3218  3244   ar
  1653  2651  2643    1
  1654  2153  2145    1
  1655  1655  1647    1
  1656  2623  2628    1
  1657  2125  2130    1
  1658  1627  1632    1
  1659  4145  4137    1
  1660  3647  3639    1
  1661  3149  3141    1
  1662  4117  4122    1
  1663  3619  3624    1
  1664  3121  3126    1
  1665  1156  1149    1
  1666   658   651    1
  1667   160   153    1
  1668  2650  2643    1
  1669  2152  2145    1
  1670  1654  1647    1
  1671  4144  4137    1
  1672  3646  3639    1
  1673  3148  3141    1
  1674  1287  1164    1
  1675   789   666    1
  1676   291   168    1
  1677  1282  1167    1
  1678  1154  1162    2
  1679   784   669    1
  1680   656   664    2
  1681   286   171    1
  1682   158   166    2
  1683  1250  1179    1
  1684   752   681    1
  1685   254   183    1
  1686  1280  1167    1
  1687   782   669    1
  1688   284   171    1
  1689  1243  2744   ar
  1690  1243  1177    1
  1691   745  2246   ar
  1692   745   679    1
  1693   247  1748   ar
  1694   247   181    1
  1695  1149  1155    1
  1696  1149  1161    1
  1697   651   657    1
  1698   651   663    1
  1699   153   159    1
  1700   153   165    1
  1701  1289  1164    1
  1702   791   666    1
  1703   293   168    1
  1704  2781  2658    1
  1705  2283  2160    1
  1706  1785  1662    1
  1707  2776  2661    1
  1708  2648  2656    2
  1709  2278  2163    1
  1710  2150  2158    2
  1711  1780  1665    1
  1712  1652  1660    2
  1713  2744  2673    1
  1714  2246  2175    1
  1715  1748  1677    1
  1716  2774  2661    1
  1717  2276  2163    1
  1718  1778  1665    1
  1719  2737  4238   ar
  1720  2737  2671    1
  1721  2239  3740   ar
  1722  2239  2173    1
  1723  1741  3242   ar
  1724  1741  1675    1
  1725  1241   754   ar
  1726  1241  1175    1
  1727   743   256   ar
  1728   743   677    1
  1729   245   179    1
  1730  2643  2649    1
  1731  2643  2655    1
  1732  2145  2151    1
  1733  2145  2157    1
  1734  1647  1653    1
  1735  1647  1659    1
  1736  2783  2658    1
  1737  2285  2160    1
  1738  1787  1662    1
  1739  4275  4152    1
  1740  3777  3654    1
  1741  3279  3156    1
  1742  4270  4155    1
  1743  4142  4150    2
  1744  3772  3657    1
  1745  3644  3652    2
  1746  3274  3159    1
  1747  3146  3154    2
  1748  1252  1254    2
  1749  4238  4167    1
  1750   754   756    1
  1751  3740  3669    1
  1752   256   258    1
  1753  3242  3171    1
  1754  4268  4155    1
  1755  3770  3657    1
  1756  3272  3159    1
  1757  4231  4165    1
  1758  3733  3667    1
  1759  3235  3169    1
  1760  2735  2248   ar
  1761  2735  2669    1
  1762  2237  1750   ar
  1763  2237  2171    1
  1764  1739  1673    1
  1765  4137  4143    1
  1766  4137  4149    1
  1767  3639  3645    1
  1768  3639  3651    1
  1769  3141  3147    1
  1770  3141  3153    1
  1771  4277  4152    1
  1772  3779  3654    1
  1773  3281  3156    1
  1774  2746  2748    2
  1775  2248  2250    1
  1776  1750  1752    1
  1777  4229  3742   ar
  1778  4229  4163    1
  1779  3731  3244   ar
  1780  3731  3665    1
  1781  3233  3167    1
  1782  1151  1161    2
  1783   653   663    2
  1784   155   165    2
  1785  4240  4242    2
  1786  3742  3744    1
  1787  3244  3246    1
  1788  2645  2655    2
  1789  2147  2157    2
  1790  1649  1659    2
  1791  4139  4149    2
  1792  3641  3651    2
  1793  3143  3153    2
  1794  1134  1142    1
  1795  1134  1145    1
  1796  1134  1140    1
  1797   636   644    1
  1798   636   647    1
  1799   636   642    1
  1800   138   146    1
  1801   138   149    1
  1802   138   144    1
  1803  1167  1274    1
  1804  1167  1272    1
  1805  1167  1262    1
  1806   669   776    1
  1807   669   774    1
  1808   669   764    1
  1809   171   278    1
  1810   171   276    1
  1811   171   266    1
  1812  2628  2636    1
  1813  2628  2639    1
  1814  2628  2634    1
  1815  2130  2138    1
  1816  2130  2141    1
  1817  2130  2136    1
  1818  1632  1640    1
  1819  1632  1643    1
  1820  1632  1638    1
  1821  1164  1269    1
  1822  1164  1267    1
  1823  1164  1265    1
  1824   666   771    1
  1825   666   769    1
  1826   666   767    1
  1827   168   273    1
  1828   168   271    1
  1829   168   269    1
  1830  2661  2768    1
  1831  2661  2766    1
  1832  2661  2756    1
  1833  2163  2270    1
  1834  2163  2268    1
  1835  2163  2258    1
  1836  1665  1772    1
  1837  1665  1770    1
  1838  1665  1760    1
  1839  4122  4130    1
  1840  4122  4133    1
  1841  4122  4128    1
  1842  3624  3632    1
  1843  3624  3635    1
  1844  3624  3630    1
  1845  3126  3134    1
  1846  3126  3137    1
  1847  3126  3132    1
  1848  2658  2763    1
  1849  2658  2761    1
  1850  2658  2759    1
  1851  2160  2265    1
  1852  2160  2263    1
  1853  2160  2261    1
  1854  1662  1767    1
  1855  1662  1765    1
  1856  1662  1763    1
  1857  4155  4262    1
  1858  4155  4260    1
  1859  4155  4250    1
  1860  3657  3764    1
  1861  3657  3762    1
  1862  3657  3752    1
  1863  3159  3266    1
  1864  3159  3264    1
  1865  3159  3254    1
  1866  1160  1150    1
  1867   662   652    1
  1868   164   154    1
  1869  1158  1150    1
  1870  4152  4257    1
  1871  4152  4255    1
  1872  4152  4253    1
  1873   660   652    1
  1874  3654  3759    1
  1875  3654  3757    1
  1876  3654  3755    1
  1877   162   154    1
  1878  3156  3261    1
  1879  3156  3259    1
  1880  3156  3257    1
  1881  2654  2644    1
  1882  2156  2146    1
  1883  1658  1648    1
  1884  1186  1291    1
  1885   688   793    1
  1886   190   295    1
  1887  2652  2644    1
  1888  2154  2146    1
  1889  1656  1648    1
  1890  4148  4138    1
  1891  3650  3640    1
  1892  3152  3142    1
  1893  2680  2785    1
  1894  2182  2287    1
  1895  1684  1789    1
  1896  4146  4138    1
  1897  3648  3640    1
  1898  3150  3142    1
  1899  1161  1148    1
  1900  1161  1152    2
  1901   663   650    1
  1902   663   654    2
  1903   165   152    1
  1904   165   156    2
  1905  4174  4279    1
  1906  3676  3781    1
  1907  3178  3283    1
  1908  2655  2642    1
  1909  2655  2646    2
  1910  2157  2144    1
  1911  2157  2148    2
  1912  1659  1646    1
  1913  1659  1650    2
  1914  1162  1150    1
  1915  1162  1148    1
  1916  1162  1153    2
  1917   664   652    1
  1918   664   650    1
  1919   664   655    2
  1920   166   154    1
  1921   166   152    1
  1922   166   157    2
  1923  1254  1195    1
  1924   756   697    1
  1925   756  1196    1
  1926   258   199    1
  1927   258   698    1
  1928  1274  1166    1
  1929   776   668    1
  1930   278   170    1
  1931  4149  4136    1
  1932  4149  4140    2
  1933  3651  3638    1
  1934  3651  3642    2
  1935  3153  3140    1
  1936  3153  3144    2
  1937  2656  2644    1
  1938  2656  2642    1
  1939  2656  2647    2
  1940  2158  2146    1
  1941  2158  2144    1
  1942  2158  2149    2
  1943  1660  1648    1
  1944  1660  1646    1
  1945  1660  1651    2
  1946  1269  1170    1
  1947   771   672    1
  1948   273   174    1
  1949  2748  2689    1
  1950  2250  2191    1
  1951  2250  2690    1
  1952  1752  1693    1
  1953  1752  2192    1
  1954  1150  1159    1
  1955   652   661    1
  1956   154   163    1
  1957  2768  2660    1
  1958  2270  2162    1
  1959  1772  1664    1
  1960  1267  1170    1
  1961   769   672    1
  1962   271   174    1
  1963  1272  1166    1
  1964   774   668    1
  1965  4150  4138    1
  1966  4150  4136    1
  1967  4150  4141    2
  1968   276   170    1
  1969  3652  3640    1
  1970  3652  3638    1
  1971  3652  3643    2
  1972  3154  3142    1
  1973  3154  3140    1
  1974  3154  3145    2
  1975  2763  2664    1
  1976  2265  2166    1
  1977  1767  1668    1
  1978  4242  4183    1
  1979  3744  3685    1
  1980  3744  4184    1
  1981  3246  3187    1
  1982  3246  3686    1
  1983  2644  2653    1
  1984  2146  2155    1
  1985  1648  1657    1
  1986  4262  4154    1
  1987  3764  3656    1
  1988  3266  3158    1
  1989  2761  2664    1
  1990  2263  2166    1
  1991  1765  1668    1
  1992  2766  2660    1
  1993  2268  2162    1
  1994  1770  1664    1
  1995  4257  4158    1
  1996  3759  3660    1
  1997  3261  3162    1
  1998  1291  1170    1
  1999   793   672    1
  2000   295   174    1
  2001  4138  4147    1
  2002  3640  3649    1
  2003  3142  3151    1
  2004  4255  4158    1
  2005  3757  3660    1
  2006  3259  3162    1
  2007  4260  4154    1
  2008  3762  3656    1
  2009  3264  3158    1
  2010  2785  2664    1
  2011  2287  2166    1
  2012  1789  1668    1
  2013  4279  4158    1
  2014  3781  3660    1
  2015  3283  3162    1
  2016  1262  1208    1
  2017   764   710    1
  2018   266   212    1
  2019  1265  1205    1
  2020   767   707    1
  2021   269   209    1
  2022  2756  2702    1
  2023  2258  2204    1
  2024  1760  1706    1
  2025  2759  2699    1
  2026  2261  2201    1
  2027  1763  1703    1
  2028  4250  4196    1
  2029  3752  3698    1
  2030  3254  3200    1
  2031  4253  4193    1
  2032  3755  3695    1
  2033  3257  3197    1
  2034  1170  1277    1
  2035  1170  1259    1
  2036  1170  1275    1
  2037   672   779    1
  2038   672   761    1
  2039   672   777    1
  2040   174   281    1
  2041   174   263    1
  2042   174   279    1
  2043  1166  1283    1
  2044  1166  1263    1
  2045  1166  1285    1
  2046   668   785    1
  2047   668   765    1
  2048   668   787    1
  2049   170   287    1
  2050   170   267    1
  2051   170   289    1
  2052  2664  2771    1
  2053  2664  2753    1
  2054  2664  2769    1
  2055  2166  2273    1
  2056  2166  2255    1
  2057  2166  2271    1
  2058  1668  1775    1
  2059  1668  1757    1
  2060  1668  1773    1
  2061  2660  2777    1
  2062  2660  2757    1
  2063  2660  2779    1
  2064  2162  2279    1
  2065  2162  2259    1
  2066  2162  2281    1
  2067  1664  1781    1
  2068  1664  1761    1
  2069  1664  1783    1
  2070  4158  4265    1
  2071  4158  4247    1
  2072  4158  4263    1
  2073  3660  3767    1
  2074  3660  3749    1
  2075  3660  3765    1
  2076  3162  3269    1
  2077  3162  3251    1
  2078  3162  3267    1
  2079  4154  4271    1
  2080  4154  4251    1
  2081  4154  4273    1
  2082  3656  3773    1
  2083  3656  3753    1
  2084  3656  3775    1
  2085  3158  3275    1
  2086  3158  3255    1
  2087  3158  3277    1
  2088  1192  1216    1
  2089   694   718    1
  2090   196   220    1
  2091  1190  1219    1
  2092   692   721    1
  2093   194   223    1
  2094  2686  2710    1
  2095  2188  2212    1
  2096  1690  1714    1
  2097  2684  2713    1
  2098  2186  2215    1
  2099  1688  1717    1
  2100  4180  4204    1
  2101  3682  3706    1
  2102  3184  3208    1
  2103  4178  4207    1
  2104  3680  3709    1
  2105  3182  3211    1
  2106  1208  1263    1
  2107  1208  1212    2
  2108   710   765    1
  2109   710   714    1
  2110   212   267    1
  2111   212   216    1
  2112  1205  1259    1
  2113  1205  1209    1
  2114   707   761    1
  2115   707   711    1
  2116   209   263    1
  2117   209   213    1
  2118  2702  2757    1
  2119  2702  2706    2
  2120  2204  2259    1
  2121  2204  2208    1
  2122  1706  1761    1
  2123  1706  1710    1
  2124  2699  2753    1
  2125  2699  2703    1
  2126  2201  2255    1
  2127  2201  2205    1
  2128  1703  1757    1
  2129  1703  1707    1
  2130  4196  4251    1
  2131  4196  4200    2
  2132  3698  3753    1
  2133  3698  3702    1
  2134  3200  3255    1
  2135  3200  3204    1
  2136  1283  1231    1
  2137   785   733    1
  2138   287   235    1
  2139  1277  1231    1
  2140   779   733    1
  2141   281   235    1
  2142  4193  4247    1
  2143  4193  4197    2
  2144  3695  3749    1
  2145  3695  3699    2
  2146  3197  3251    1
  2147  3197  3201    2
  2148  2777  2725    1
  2149  2279  2227    1
  2150  1781  1729    1
  2151  2771  2725    1
  2152  2273  2227    1
  2153  1775  1729    1
  2154  4271  4219    1
  2155  3773  3721    1
  2156  3275  3223    1
  2157  4265  4219    1
  2158  1285  1229    1
  2159  3767  3721    1
  2160   787   731    1
  2161  3269  3223    1
  2162   289   233    1
  2163  1275  1229    1
  2164   777   731    1
  2165   279   233    1
  2166  2779  2723    1
  2167  2281  2225    1
  2168  1783  1727    1
  2169  1231  1223    2
  2170   733   725    1
  2171   235   227    1
  2172  2769  2723    1
  2173  2271  2225    1
  2174  1773  1727    1
  2175  4273  4217    1
  2176  3775  3719    1
  2177  3277  3221    1
  2178  2725  2717    2
  2179  1216  1212    1
  2180  2227  2219    1
  2181   718   714   ar
  2182   718  1218   ar
  2183  1729  1721    1
  2184   220   216   ar
  2185   220   720   ar
  2186  4263  4217    1
  2187  3765  3719    1
  2188  3267  3221    1
  2189  1229  1221    1
  2190   731   723    1
  2191  1219  1209   ar
  2192  1219  2708   ar
  2193   233   225    1
  2194   721   711   ar
  2195   721  2210   ar
  2196   223   213   ar
  2197   223  1712   ar
  2198  4219  4211    2
  2199  2710  2706    1
  2200  3721  3713    2
  2201  2212  2208   ar
  2202  2212  2712   ar
  2203  3223  3215    2
  2204  1714  1710   ar
  2205  1714  2214   ar
  2206  2723  2715    1
  2207  2225  2217    1
  2208  2713  2703   ar
  2209  2713  4202   ar
  2210  1727  1719    1
  2211  2215  2205   ar
  2212  2215  3704   ar
  2213  1717  1707   ar
  2214  1717  3206   ar
  2215  4204  4200    1
  2216  3706  3702   ar
  2217  3706  4206   ar
  2218  1200  1256    1
  2219  3208  3204   ar
  2220  3208  3708   ar
  2221   702   758    1
  2222   204   260    1
  2223  4217  4209    1
  2224  3719  3711    1
  2225  4207  4197    1
  2226  3221  3213    1
  2227  3709  3699    1
  2228  3211  3201    1
  2229  2694  2750    1
  2230  2196  2252    1
  2231  1698  1754    1
  2232  1212  1217    1
  2233   714   719   ar
  2234   216   221   ar
  2235  4188  4244    1
  2236  3690  3746    1
  2237  3192  3248    1
  2238  1209  1213   ar
  2239   711   715   ar
  2240   213   217   ar
  2241  2706  2711    1
  2242  2208  2213   ar
  2243  1710  1715   ar
  2244  1194  1253    1
  2245   696   755    1
  2246   198   257    1
  2247  2703  2707   ar
  2248  2205  2209   ar
  2249  1707  1711   ar
  2250  4200  4205    1
  2251  3702  3707   ar
  2252  3204  3209   ar
  2253  2688  2747    1
  2254  2190  2249    1
  2255  1692  1751    1
  2256  1191  1214    1
  2257   693   716    1
  2258   195   218    1
  2259  1173  1239    1
  2260   675   741    1
  2261   177   243    1
  2262  4197  4201    1
  2263  3699  3703    1
  2264  3201  3205    1
  2265  4182  4241    1
  2266  3684  3743    1
  2267  3186  3245    1
  2268  1223  1239    1
  2269  1223  1245    1
  2270   725   741   ar
  2271   725   747   ar
  2272   227   243   ar
  2273   227   249   ar
  2274  1180  1247    1
  2275   682   749    1
  2276   184   251    1
  2277  2685  2708    1
  2278  2187  2210    1
  2279  1689  1712    1
  2280  2667  2733    1
  2281  2169  2235    1
  2282  1671  1737    1
  2283  1221  1247   ar
  2284  1221  1237   ar
  2285  1187  1218    1
  2286   723   749   ar
  2287   723   739   ar
  2288   689   720    1
  2289   225   251   ar
  2290   225   241   ar
  2291   191   222    1
  2292  2717  2733    1
  2293  2717  2739    1
  2294  2219  2235   ar
  2295  2219  2241   ar
  2296  1721  1737   ar
  2297  1721  1743   ar
  2298  2674  2741    1
  2299  2176  2243    1
  2300  1678  1745    1
  2301  4179  4202    1
  2302  3681  3704    1
  2303  3183  3206    1
  2304  1256  1199    1
  2305  1256  1245    1
  2306   758   701    1
  2307   758   747    1
  2308   260   203    1
  2309   260   249    1
  2310  4161  4227    1
  2311  3663  3729    1
  2312  3165  3231    1
  2313  2715  2741   ar
  2314  2715  2731   ar
  2315  2681  2712    1
  2316  2217  2243   ar
  2317  2217  2233   ar
  2318  2183  2214    1
  2319  1719  1745   ar
  2320  1719  1735   ar
  2321  1685  1716    1
  2322  4211  4227    1
  2323  4211  4233    1
  2324  3713  3729    1
  2325  3713  3735    1
  2326  3215  3231    1
  2327  3215  3237    1
  2328  4168  4235    1
  2329  3670  3737    1
  2330  3172  3239    1
  2331  1214  1210    1
  2332   716   712    1
  2333   218   214    1
  2334  2750  2693    1
  2335  2750  2739    1
  2336  2252  2195    1
  2337  2252  2241    1
  2338  1754  1697    1
  2339  1754  1743    1
  2340  4209  4235   ar
  2341  4209  4225   ar
  2342  4175  4206    1
  2343  3711  3737   ar
  2344  3711  3727   ar
  2345  3677  3708    1
  2346  3213  3239   ar
  2347  3213  3229   ar
  2348  3179  3210    1
  2349   741  2740   ar
  2350  1247  1238   ar
  2351   243  2242   ar
  2352   749   740   ar
  2353   251   242   ar
  2354  1218  1211   ar
  2355   720   713   ar
  2356   222   215    1
  2357  2708  2704   ar
  2358  2210  2206   ar
  2359  1712  1708   ar
  2360  1253  1193    1
  2361  1253  1237    1
  2362   755   695    1
  2363   755   739    1
  2364   257   197    1
  2365   257   241    1
  2366  4244  4187    1
  2367  4244  4233    1
  2368  3746  3689    1
  2369  3746  3735    1
  2370  3248  3191    1
  2371  3248  3237    1
  2372   747  2734   ar
  2373   249  2236   ar
  2374  2235  4234   ar
  2375  2741  2732   ar
  2376  1737  3736   ar
  2377  2243  2234   ar
  2378  1745  1736   ar
  2379  2712  2705   ar
  2380  2214  2207   ar
  2381  1716  1709    1
  2382  4202  4198   ar
  2383  3704  3700   ar
  2384  3206  3202   ar
  2385  2747  2687    1
  2386  2747  2731    1
  2387  2249  2189    1
  2388  2249  2233    1
  2389  1751  1691    1
  2390  1751  1735    1
  2391  1237  1248   ar
  2392   739   750   ar
  2393   241   252   ar
  2394  2241  4228   ar
  2395  1743  3730   ar
  2396  4235  4226   ar
  2397  3737  3728   ar
  2398  3239  3230   ar
  2399  4206  4199   ar
  2400  3708  3701   ar
  2401  3210  3203    1
  2402  4241  4181    1
  2403  4241  4225    1
  2404  3743  3683    1
  2405  3743  3727    1
  2406  3245  3185    1
  2407  3245  3229    1
  2408  2731  2742   ar
  2409  2233  2244   ar
  2410  1735  1746   ar
  2411  4225  4236   ar
  2412  3727  3738   ar
  2413  3229  3240   ar
  2414  1238  1171    1
  2415  1238  1222   ar
  2416   740   673    1
  2417   740   724   ar
  2418   242   175    1
  2419   242   226   ar
  2420  1202  1257    1
  2421   704   759    1
  2422   206   261    1
  2423  1246  1182    1
  2424  1246  1224    1
  2425   748   684    1
  2426   748   726    1
  2427   250   186    1
  2428   250   228    1
  2429  1217  1188    1
  2430   719   690    1
  2431   719  1215   ar
  2432   221   192    1
  2433   221   717   ar
  2434  2732  2665    1
  2435  2732  2716   ar
  2436  2234  2167    1
  2437  2234  2218   ar
  2438  1736  1669    1
  2439  1736  1720   ar
  2440  2696  2751    1
  2441  2198  2253    1
  2442  1700  1755    1
  2443  1240  1224    1
  2444  1240  1172    1
  2445   742   726    1
  2446   742   674    1
  2447  2740  2676    1
  2448  2740  2718   ar
  2449   244   228    1
  2450   244   176    1
  2451  2242  2178    1
  2452  2242  2220   ar
  2453  1744  1680    1
  2454  1744  1722    1
  2455  1248  1222   ar
  2456  1248  1181    1
  2457   750   724   ar
  2458   750   683    1
  2459   252   226   ar
  2460   252   185    1
  2461  2711  2682    1
  2462  2213  2184    1
  2463  2213  2709   ar
  2464  1715  1686    1
  2465  1715  2211   ar
  2466  4226  4159    1
  2467  4226  4210   ar
  2468  3728  3661    1
  2469  3728  3712   ar
  2470  3230  3163    1
  2471  3230  3214   ar
  2472  4190  4245    1
  2473  3692  3747    1
  2474  3194  3249    1
  2475  2734  2718   ar
  2476  2734  2666    1
  2477  2236  2220   ar
  2478  2236  2168    1
  2479  4234  4170    1
  2480  4234  4212   ar
  2481  1738  1722    1
  2482  1738  1670    1
  2483  3736  3672    1
  2484  3736  3714   ar
  2485  3238  3174    1
  2486  3238  3216    1
  2487  1213  1257    1
  2488  1213  2714   ar
  2489   715   759    1
  2490   715  2216   ar
  2491   217   261    1
  2492   217  1718   ar
  2493  2742  2716   ar
  2494  2742  2675    1
  2495  2244  2218   ar
  2496  2244  2177    1
  2497  1746  1720   ar
  2498  1746  1679    1
  2499  4205  4176    1
  2500  3707  3678    1
  2501  3707  4203   ar
  2502  3209  3180    1
  2503  3209  3705   ar
  2504  4228  4212   ar
  2505  4228  4160    1
  2506  3730  3714   ar
  2507  3730  3662    1
  2508  3232  3216    1
  2509  3232  3164    1
  2510  2707  2751    1
  2511  2707  4208   ar
  2512  2209  2253    1
  2513  2209  3710   ar
  2514  1711  1755    1
  2515  1711  3212   ar
  2516  1222  1230    1
  2517   724   732    1
  2518   226   234    1
  2519  4236  4210   ar
  2520  4236  4169    1
  2521  3738  3712   ar
  2522  3738  3671    1
  2523  3240  3214   ar
  2524  3240  3173    1
  2525  1224  1232    2
  2526   726   734    2
  2527   228   236    2
  2528  4201  4245    1
  2529  3703  3747    1
  2530  3205  3249    1
  2531  2716  2724    1
  2532  2218  2226    1
  2533  1720  1728    1
  2534  2718  2726    1
  2535  2220  2228    1
  2536  1722  1730    2
  2537  4210  4218    1
  2538  3712  3720    1
  2539  3214  3222    1
  2540  4212  4220    1
  2541  3714  3722    1
  2542  3216  3224    2
  2543  1257  1201    1
  2544   759   703    1
  2545  1210  1220    1
  2546  1210  1206    2
  2547   261   205    1
  2548   712   722    1
  2549   712   708    2
  2550   214   224    1
  2551   214   210    2
  2552  1211  1215   ar
  2553  1211  1207    1
  2554   713   717   ar
  2555   713   709    1
  2556   215   219    1
  2557   215   211    2
  2558  2751  2695    1
  2559  2253  2197    1
  2560  2704  2714   ar
  2561  2704  2700    1
  2562  1755  1699    1
  2563  2206  2216   ar
  2564  2206  2202    1
  2565  1708  1718   ar
  2566  1708  1704    1
  2567  2705  2709   ar
  2568  2705  2701    1
  2569  2207  2211   ar
  2570  2207  2203    1
  2571  1709  1713    1
  2572  1709  1705    2
  2573  4245  4189    1
  2574  3747  3691    1
  2575  4198  4208   ar
  2576  4198  4194    1
  2577  3249  3193    1
  2578  3700  3710   ar
  2579  3700  3696    1
  2580  3202  3212   ar
  2581  3202  3198    1
  2582  4199  4203   ar
  2583  4199  4195    1
  2584  3701  3705   ar
  2585  3701  3697    1
  2586  3203  3207    1
  2587  3203  3199    2
  2588  1230  1276    1
  2589  1230  1286    1
  2590   732   778    1
  2591   732   788    1
  2592   234   280    1
  2593   234   290    1
  2594  1220  1189    1
  2595   722   691    1
  2596   224   193    1
  2597  2724  2770    1
  2598  2724  2780    1
  2599  2226  2272    1
  2600  2226  2282    1
  2601  1728  1774    1
  2602  1728  1784    1
  2603  1215  1258    1
  2604   717   760    1
  2605   219   262    1
  2606  2714  2683    1
  2607  2216  2185    1
  2608  1718  1687    1
  2609  1232  1284    1
  2610  1232  1278    1
  2611   734   786    1
  2612   734   780    1
  2613   236   288    1
  2614   236   282    1
  2615  1276  1169    1
  2616   778   671    1
  2617   280   173    1
  2618  4218  4264    1
  2619  4218  4274    1
  2620  3720  3766    1
  2621  3720  3776    1
  2622  3222  3268    1
  2623  3222  3278    1
  2624  2709  2752    1
  2625  2211  2254    1
  2626  1713  1756    1
  2627  4208  4177    1
  2628  3710  3679    1
  2629  3212  3181    1
  2630  2726  2778    1
  2631  2726  2772    1
  2632  2228  2280    1
  2633  2228  2274    1
  2634  1730  1782    1
  2635  1730  1776    1
  2636  2770  2663    1
  2637  2272  2165    1
  2638  1774  1667    1
  2639  4203  4246    1
  2640  3705  3748    1
  2641  3207  3250    1
  2642  1260  1206    1
  2643  1260  1169    1
  2644   762   708    1
  2645   762   671    1
  2646   264   210    1
  2647   264   173    1
  2648  1286  1165    1
  2649   788   667    1
  2650   290   169    1
  2651  1264  1207    1
  2652  1264  1165    1
  2653   766   709    1
  2654   766   667    1
  2655   268   211    1
  2656   268   169    1
  2657  4220  4272    1
  2658  4220  4266    1
  2659  3722  3774    1
  2660  3722  3768    1
  2661  3224  3276    1
  2662  3224  3270    1
  2663  4264  4157    1
  2664  3766  3659    1
  2665  3268  3161    1
  2666  1284  1165    1
  2667   786   667    1
  2668   288   169    1
  2669  2754  2700    1
  2670  2754  2663    1
  2671  2256  2202    1
  2672  2256  2165    1
  2673  1758  1704    1
  2674  1758  1667    1
  2675  2780  2659    1
  2676  2282  2161    1
  2677  1784  1663    1
  2678  2758  2701    1
  2679  2758  2659    1
  2680  2260  2203    1
  2681  2260  2161    1
  2682  1762  1705    1
  2683  1762  1663    1
  2684  2778  2659    1
  2685  2280  2161    1
  2686  1782  1663    1
  2687  4248  4194    1
  2688  4248  4157    1
  2689  3750  3696    1
  2690  3750  3659    1
  2691  3252  3198    1
  2692  3252  3161    1
  2693  4274  4153    1
  2694  3776  3655    1
  2695  3278  3157    1
  2696  1278  1169    1
  2697   780   671    1
  2698   282   173    1
  2699  4252  4195    1
  2700  4252  4153    1
  2701  3754  3697    1
  2702  3754  3655    1
  2703  3256  3199    1
  2704  3256  3157    1
  2705  4272  4153    1
  2706  3774  3655    1
  2707  3276  3157    1
  2708  2772  2663    1
  2709  2274  2165    1
  2710  1776  1667    1
  2711  1206  1266    1
  2712   708   768    1
  2713   210   270    1
  2714  1207  1261    1
  2715   709   763    1
  2716   211   265    1
  2717  4266  4157    1
  2718  3768  3659    1
  2719  3270  3161    1
  2720  2700  2760    1
  2721  2202  2262    1
  2722  1704  1764    1
  2723  2701  2755    1
  2724  2203  2257    1
  2725  1705  1759    1
  2726  4194  4254    1
  2727  3696  3756    1
  2728  3198  3258    1
  2729  4195  4249    1
  2730  3697  3751    1
  2731  3199  3253    1
  2732  1309  1299    1
  2733   811   801    1
  2734   313   303    1
  2735  1258  1203    1
  2736  1258  1204    1
  2737   760   705    1
  2738   760   706    1
  2739   262   207    1
  2740   262   208    1
  2741  2803  2793    1
  2742  2305  2295    1
  2743  1807  1797    1
  2744  2752  2697    1
  2745  2752  2698    1
  2746  2254  2199    1
  2747  2254  2200    1
  2748  1756  1701    1
  2749  1756  1702    1
  2750  4297  4287    1
  2751  3799  3789    1
  2752  3301  3291    1
  2753  4246  4191    1
  2754  4246  4192    1
  2755  3748  3693    1
  2756  3748  3694    1
  2757  3250  3195    1
  2758  3250  3196    1
  2759  1169  1292    1
  2760  1169  1268    1
  2761  1169  1270    1
  2762   671   794    1
  2763   671   770    1
  2764   671   772    1
  2765   173   296    1
  2766   173   272    1
  2767   173   274    1
  2768  1165  1271    1
  2769  1165  1273    1
  2770   667   773    1
  2771   667   775    1
  2772   169   275    1
  2773   169   277    1
  2774  1305  1299    1
  2775   807   801    1
  2776   309   303    1
  2777  2663  2786    1
  2778  2663  2762    1
  2779  2663  2764    1
  2780  2165  2288    1
  2781  2165  2264    1
  2782  2165  2266    1
  2783  1667  1790    1
  2784  1667  1766    1
  2785  1667  1768    1
  2786  2659  2765    1
  2787  2659  2767    1
  2788  2161  2267    1
  2789  2161  2269    1
  2790  1663  1769    1
  2791  1663  1771    1
  2792  2799  2793    1
  2793  2301  2295    1
  2794  1803  1797    1
  2795  1310  1302    1
  2796   812   804    1
  2797   314   306    1
  2798  4157  4280    1
  2799  4157  4256    1
  2800  4157  4258    1
  2801  3659  3782    1
  2802  3659  3758    1
  2803  3659  3760    1
  2804  3161  3284    1
  2805  3161  3260    1
  2806  3161  3262    1
  2807  4153  4259    1
  2808  4153  4261    1
  2809  3655  3761    1
  2810  3655  3763    1
  2811  3157  3263    1
  2812  3157  3265    1
  2813  4293  4287    1
  2814  3795  3789    1
  2815  3297  3291    1
  2816  1266  1163    1
  2817   768   665    1
  2818   270   167    1
  2819  2804  2796    1
  2820  2306  2298    1
  2821  1808  1800    1
  2822  1261  1168    1
  2823   763   670    1
  2824   265   172    1
  2825  2760  2657    1
  2826  2262  2159    1
  2827  1764  1661    1
  2828  4298  4290    1
  2829  3800  3792    1
  2830  3302  3294    1
  2831  1197  1255    1
  2832   699   757    1
  2833   201   259    1
  2834  1299  1302    1
  2835  1299  1307    1
  2836   801   804    1
  2837   801   809    1
  2838   303   306    1
  2839   303   311    1
  2840  2755  2662    1
  2841  2257  2164    1
  2842  1759  1666    1
  2843  4254  4151    1
  2844  3756  3653    1
  2845  3258  3155    1
  2846  2691  2749    1
  2847  2193  2251    1
  2848  1695  1753    1
  2849  2793  2796    1
  2850  2793  2801    1
  2851  2295  2298    1
  2852  2295  2303    1
  2853  1797  1800    1
  2854  1797  1805    1
  2855  4249  4156    1
  2856  3751  3658    1
  2857  3253  3160    1
  2858  4185  4243    1
  2859  3687  3745    1
  2860  3189  3247    1
  2861  4287  4290    1
  2862  4287  4295    1
  2863  3789  3792    1
  2864  3789  3797    1
  2865  3291  3294    1
  2866  3291  3299    1
  2867  1292  1185    1
  2868   794   687    1
  2869   296   189    1
  2870  1304  1298    1
  2871   806   800    1
  2872   308   302    1
  2873  2786  2679    1
  2874  2288  2181    1
  2875  1790  1683    1
  2876  1302  1313    1
  2877  1302  1296    1
  2878  1268  1163    1
  2879   804   815    1
  2880   804   798    1
  2881   770   665    1
  2882   306   317    1
  2883   306   300    1
  2884   272   167    1
  2885  1271  1168    1
  2886   773   670    1
  2887   275   172    1
  2888  2798  2792    1
  2889  2300  2294    1
  2890  1802  1796    1
  2891  4280  4173    1
  2892  3782  3675    1
  2893  3284  3177    1
  2894  2796  2807    1
  2895  2796  2790    1
  2896  2762  2657    1
  2897  2298  2309    1
  2898  2298  2292    1
  2899  2264  2159    1
  2900  1800  1811    1
  2901  1800  1794    1
  2902  1766  1661    1
  2903  2765  2662    1
  2904  2267  2164    1
  2905  1769  1666    1
  2906  4292  4286    1
  2907  3794  3788    1
  2908  3296  3290    1
  2909  1270  1163    1
  2910   772   665    1
  2911   274   167    1
  2912  1198  1255    1
  2913   700   757    1
  2914   202   259    1
  2915  4290  4301    1
  2916  4290  4284    1
  2917  4256  4151    1
  2918  3792  3803    1
  2919  3792  3786    1
  2920  3758  3653    1
  2921  3294  3305    1
  2922  3294  3288    1
  2923  3260  3155    1
  2924  4259  4156    1
  2925  3761  3658    1
  2926  3263  3160    1
  2927  1255  1249    1
  2928   757   751    1
  2929   259   253    1
  2930  1273  1168    1
  2931   775   670    1
  2932   277   172    1
  2933  2764  2657    1
  2934  2266  2159    1
  2935  1768  1661    1
  2936  2692  2749    1
  2937  2194  2251    1
  2938  1696  1753    1
  2939  2749  2743    1
  2940  2251  2245    1
  2941  1753  1747    1
  2942  2767  2662    1
  2943  2269  2164    1
  2944  1771  1666    1
  2945  4258  4151    1
  2946  3760  3653    1
  2947  3262  3155    1
  2948  4186  4243    1
  2949  3688  3745    1
  2950  3190  3247    1
  2951  4243  4237    1
  2952  3745  3739    1
  2953  3247  3241    1
  2954  4261  4156    1
  2955  3763  3658    1
  2956  3265  3160    1
  2957  1176  1244    1
  2958   678   746    1
  2959   180   248    1
  2960  2670  2738    1
  2961  2172  2240    1
  2962  1674  1742    1
  2963  1178  1251    1
  2964   680   753    1
  2965   182   255    1
  2966  1174  1242    1
  2967   676   744    1
  2968   178   246    1
  2969  4164  4232    1
  2970  3666  3734    1
  2971  3168  3236    1
  2972  2672  2745    1
  2973  2174  2247    1
  2974  1676  1749    1
  2975  2668  2736    1
  2976  2170  2238    1
  2977  1672  1740    1
  2978  4166  4239    1
  2979  3668  3741    1
  2980  3170  3243    1
  2981  1298  1296    1
  2982  1298  1297    2
  2983   800   798    1
  2984   800   799    2
  2985   302   300    1
  2986   302   301    2
  2987  1163  1288    1
  2988  1163  1290    1
  2989   665   790    1
  2990   665   792    1
  2991   167   292    1
  2992   167   294    1
  2993  4162  4230    1
  2994  3664  3732    1
  2995  3166  3234    1
  2996  1168  1281    1
  2997  1168  1279    1
  2998  1168  1459    1
  2999   670   783    1
  3000   670   781    1
  3001   670   961    1
  3002   172   285    1
  3003   172   283    1
  3004   172   463    1
  3005  2792  2790    1
  3006  2792  2791    2
  3007  2294  2292    1
  3008  2294  2293    2
  3009  1796  1794    1
  3010  1796  1795    2
  3011  2657  2782    1
  3012  2657  2784    1
  3013  2159  2284    1
  3014  2159  2286    1
  3015  1661  1786    1
  3016  1661  1788    1
  3017  1296  1301    1
  3018   798   803    1
  3019   300   305    1
  3020  2662  2775    1
  3021  2662  2773    1
  3022  2662  2953    1
  3023  2164  2277    1
  3024  2164  2275    1
  3025  2164  2455    1
  3026  1666  1779    1
  3027  1666  1777    1
  3028  1666  1957    1
  3029  4286  4284    1
  3030  4286  4285    2
  3031  3788  3786    1
  3032  3788  3787    2
  3033  3290  3288    1
  3034  3290  3289    2
  3035  4151  4276    1
  3036  4151  4278    1
  3037  3653  3778    1
  3038  3653  3780    1
  3039  3155  3280    1
  3040  3155  3282    1
  3041  2790  2795    1
  3042  2292  2297    1
  3043  1794  1799    1
  3044  4156  4269    1
  3045  4156  4267    1
  3046  4156  4447    1
  3047  3658  3771    1
  3048  3658  3769    1
  3049  3658  3949    1
  3050  3160  3273    1
  3051  3160  3271    1
  3052  3160  3451    1
  3053  4284  4289    1
  3054  3786  3791    1
  3055  3288  3293    1
  3056  1244  1394    1
  3057   746   896    1
  3058   248   398    1
  3059  1249  2738   ar
  3060  1249  1393   ar
  3061   751  2240   ar
  3062   751   895   ar
  3063   253  1742   ar
  3064   253   397   ar
  3065  2738  2888   ar
  3066  2240  2390   ar
  3067  1742  1892   ar
  3068  2743  4232   ar
  3069  2743  2887   ar
  3070  2245  3734   ar
  3071  2245  2389   ar
  3072  1747  3236   ar
  3073  1747  1891   ar
  3074  1251   744   ar
  3075  1251  1391   ar
  3076   753   246   ar
  3077   753   893   ar
  3078   255   395    1
  3079  1281  1401    1
  3080   783   903    1
  3081   285   405    1
  3082  1288  1402    1
  3083   790   904    1
  3084   292   406    1
  3085  1242  1392    1
  3086   744   894   ar
  3087   246   396   ar
  3088  4232  4382   ar
  3089  3734  3884   ar
  3090  3236  3386   ar
  3091  1290  1400    1
  3092   792   902    1
  3093   294   404    1
  3094  4237  4381    1
  3095  3739  3883    1
  3096  3241  3385    1
  3097  1279  1399    1
  3098   781   901    1
  3099   283   403    1
  3100  2745  2238   ar
  3101  2745  2885   ar
  3102  2247  1740   ar
  3103  2247  2387   ar
  3104  1749  1889    1
  3105  2775  2895    1
  3106  2277  2397    1
  3107  1779  1899    1
  3108  2782  2896    1
  3109  2284  2398    1
  3110  1786  1900    1
  3111  2736  2886    1
  3112  2238  2388   ar
  3113  1740  1890   ar
  3114  2784  2894    1
  3115  2286  2396    1
  3116  1788  1898    1
  3117  2773  2893    1
  3118  2275  2395    1
  3119  1777  1897    1
  3120  4239  3732   ar
  3121  4239  4379   ar
  3122  3741  3234   ar
  3123  3741  3881   ar
  3124  3243  3383    1
  3125  4269  4389    1
  3126  3771  3891    1
  3127  3273  3393    1
  3128  4276  4390    1
  3129  3778  3892    1
  3130  3280  3394    1
  3131  4230  4380    1
  3132  3732  3882   ar
  3133  3234  3384   ar
  3134  4278  4388    1
  3135  3780  3890    1
  3136  3282  3392    1
  3137  4267  4387    1
  3138  3769  3889    1
  3139  3271  3391    1
  3140  1297  1303    1
  3141  1297  1295    1
  3142   799   805    1
  3143   799   797    1
  3144   301   307    1
  3145   301   299    1
  3146  2791  2797    1
  3147  2791  2789    1
  3148  2293  2299    1
  3149  2293  2291    1
  3150  1795  1801    1
  3151  1795  1793    1
  3152  4285  4291    1
  3153  4285  4283    1
  3154  3787  3793    1
  3155  3787  3785    1
  3156  3289  3295    1
  3157  3289  3287    1
  3158  1301  1312    1
  3159  1301  1295    1
  3160   803   814    1
  3161   803   797    1
  3162   305   316    1
  3163   305   299    1
  3164  2795  2806    1
  3165  2795  2789    1
  3166  2297  2308    1
  3167  2297  2291    1
  3168  1799  1810    1
  3169  1799  1793    1
  3170  4289  4300    1
  3171  4289  4283    1
  3172  3791  3802    1
  3173  3791  3785    1
  3174  3293  3304    1
  3175  3293  3287    1
  3176  1349  1460    1
  3177   851   962    1
  3178   353   464    1
  3179  1394  1402    2
  3180  1394  1416    1
  3181   896   904    2
  3182   896   918    1
  3183   398   406    2
  3184   398   420    1
  3185  1393  1401    1
  3186  1393  1409   ar
  3187   895   903    1
  3188   895   911   ar
  3189   397   405    1
  3190   397   413   ar
  3191  1401  1453    1
  3192  1402  1448    1
  3193   903   955    1
  3194   904   950    1
  3195   405   457    1
  3196   406   452    1
  3197  1460  1333    1
  3198   962   835    1
  3199   464   337    1
  3200  2843  2954    1
  3201  2345  2456    1
  3202  1847  1958    1
  3203  2888  2896    1
  3204  2888  2910   ar
  3205  2390  2398    1
  3206  2390  2412   ar
  3207  1892  1900    1
  3208  1892  1914   ar
  3209  2887  2895    1
  3210  2887  2903   ar
  3211  2389  2397    1
  3212  2389  2405   ar
  3213  1891  1899    1
  3214  1891  1907   ar
  3215  1459  1350    1
  3216   961   852    1
  3217   463   354    1
  3218  1400  1392    2
  3219  1400  1446    1
  3220   902   894    1
  3221   902   948    1
  3222   404   396    1
  3223   404   450    1
  3224  1391  1399    1
  3225  1391  1407   ar
  3226   893   901    1
  3227   893   909   ar
  3228   395   403    2
  3229   395   411    1
  3230  1399  1455    1
  3231  2895  2947    1
  3232   901   957    1
  3233  2896  2942    1
  3234  2397  2449    1
  3235   403   459    1
  3236  2398  2444    1
  3237  1899  1951    1
  3238  1900  1946    1
  3239  2954  2827    1
  3240  2456  2329    1
  3241  1958  1831    1
  3242  4337  4448    1
  3243  3839  3950    1
  3244  3341  3452    1
  3245  1392  1418    1
  3246   894   920   ar
  3247   396   422   ar
  3248  4382  4390    1
  3249  4382  4404   ar
  3250  3884  3892    1
  3251  3884  3906   ar
  3252  3386  3394    1
  3253  3386  3408   ar
  3254  4381  4389    2
  3255  4381  4397    1
  3256  3883  3891    2
  3257  3883  3899    1
  3258  3385  3393    2
  3259  3385  3401    1
  3260  2953  2844    1
  3261  2455  2346    1
  3262  1957  1848    1
  3263  2894  2886    2
  3264  2894  2940    1
  3265  2396  2388    1
  3266  2396  2442    1
  3267  1898  1890    1
  3268  1898  1944    1
  3269  2885  2893    1
  3270  2885  2901   ar
  3271  2387  2395    1
  3272  2387  2403   ar
  3273  1889  1897    2
  3274  1889  1905    1
  3275  2893  2949    1
  3276  4389  4441    1
  3277  2395  2451    1
  3278  4390  4436    1
  3279  3891  3943    1
  3280  1897  1953    1
  3281  3892  3938    1
  3282  3393  3445    1
  3283  3394  3440    1
  3284  4448  4321    1
  3285  3950  3823    1
  3286  3452  3325    1
  3287  2886  2912    1
  3288  2388  2414   ar
  3289  1890  1916   ar
  3290  1323  1315    1
  3291   825   817    1
  3292   327   319    1
  3293  4447  4338    1
  3294  3949  3840    1
  3295  3451  3342    1
  3296  4388  4380    2
  3297  4388  4434    1
  3298  3890  3882    1
  3299  3890  3936    1
  3300  3392  3384    1
  3301  3392  3438    1
  3302  4379  4387    1
  3303  4379  4395   ar
  3304  3881  3889    1
  3305  3881  3897   ar
  3306  3383  3391    2
  3307  3383  3399    1
  3308  4387  4443    1
  3309  3889  3945    1
  3310  3391  3447    1
  3311  1295  1300    1
  3312   797   802    1
  3313   299   304    1
  3314  4380  4406    1
  3315  3882  3908   ar
  3316  3384  3410   ar
  3317  2817  2809    1
  3318  2319  2311    1
  3319  1821  1813    1
  3320  2789  2794    1
  3321  2291  2296    1
  3322  1793  1798    1
  3323  4311  4303    1
  3324  3813  3805    1
  3325  3315  3307    1
  3326  4283  4288    1
  3327  3785  3790    1
  3328  3287  3292    1
  3329  1322  1315    1
  3330   824   817    1
  3331   326   319    1
  3332  2816  2809    1
  3333  2318  2311    1
  3334  1820  1813    1
  3335  4310  4303    1
  3336  3812  3805    1
  3337  3314  3307    1
  3338  1453  1330    1
  3339   955   832    1
  3340   457   334    1
  3341  1448  1333    1
  3342  1320  1328    2
  3343   950   835    1
  3344   822   830    2
  3345   452   337    1
  3346   324   332    2
  3347  1416  1345    1
  3348   918   847    1
  3349   420   349    1
  3350  1446  1333    1
  3351   948   835    1
  3352   450   337    1
  3353  1409  2910   ar
  3354  1409  1343    1
  3355   911  2412   ar
  3356   911   845    1
  3357   413  1914   ar
  3358   413   347    1
  3359  1315  1321    1
  3360  1315  1327    1
  3361   817   823    1
  3362   817   829    1
  3363   319   325    1
  3364   319   331    1
  3365  1455  1330    1
  3366   957   832    1
  3367   459   334    1
  3368  2947  2824    1
  3369  2449  2326    1
  3370  1951  1828    1
  3371  2942  2827    1
  3372  2814  2822    2
  3373  2444  2329    1
  3374  2316  2324    2
  3375  1946  1831    1
  3376  1818  1826    2
  3377  2910  2839    1
  3378  2412  2341    1
  3379  1914  1843    1
  3380  2940  2827    1
  3381  2442  2329    1
  3382  1944  1831    1
  3383  2903  4404   ar
  3384  2903  2837    1
  3385  2405  3906   ar
  3386  2405  2339    1
  3387  1907  3408   ar
  3388  1907  1841    1
  3389  1407   920   ar
  3390  1407  1341    1
  3391   909   422   ar
  3392   909   843    1
  3393   411   345    1
  3394  2809  2815    1
  3395  2809  2821    1
  3396  2311  2317    1
  3397  2311  2323    1
  3398  1813  1819    1
  3399  1813  1825    1
  3400  2949  2824    1
  3401  2451  2326    1
  3402  1953  1828    1
  3403  4441  4318    1
  3404  3943  3820    1
  3405  3445  3322    1
  3406  4436  4321    1
  3407  4308  4316    2
  3408  3938  3823    1
  3409  3810  3818    2
  3410  3440  3325    1
  3411  3312  3320    2
  3412  1418  1420    2
  3413  4404  4333    1
  3414   920   922    1
  3415  3906  3835    1
  3416   422   424    1
  3417  3408  3337    1
  3418  4434  4321    1
  3419  3936  3823    1
  3420  3438  3325    1
  3421  4397  4331    1
  3422  3899  3833    1
  3423  3401  3335    1
  3424  2901  2414   ar
  3425  2901  2835    1
  3426  2403  1916   ar
  3427  2403  2337    1
  3428  1905  1839    1
  3429  4303  4309    1
  3430  4303  4315    1
  3431  3805  3811    1
  3432  3805  3817    1
  3433  3307  3313    1
  3434  3307  3319    1
  3435  4443  4318    1
  3436  3945  3820    1
  3437  3447  3322    1
  3438  2912  2914    2
  3439  2414  2416    1
  3440  1916  1918    1
  3441  4395  3908   ar
  3442  4395  4329    1
  3443  3897  3410   ar
  3444  3897  3831    1
  3445  3399  3333    1
  3446  1317  1327    2
  3447   819   829    2
  3448   321   331    2
  3449  4406  4408    2
  3450  3908  3910    1
  3451  3410  3412    1
  3452  2811  2821    2
  3453  2313  2323    2
  3454  1815  1825    2
  3455  4305  4315    2
  3456  3807  3817    2
  3457  3309  3319    2
  3458  1300  1308    1
  3459  1300  1311    1
  3460  1300  1306    1
  3461   802   810    1
  3462   802   813    1
  3463   802   808    1
  3464   304   312    1
  3465   304   315    1
  3466   304   310    1
  3467  1333  1440    1
  3468  1333  1438    1
  3469  1333  1428    1
  3470   835   942    1
  3471   835   940    1
  3472   835   930    1
  3473   337   444    1
  3474   337   442    1
  3475   337   432    1
  3476  2794  2802    1
  3477  2794  2805    1
  3478  2794  2800    1
  3479  2296  2304    1
  3480  2296  2307    1
  3481  2296  2302    1
  3482  1798  1806    1
  3483  1798  1809    1
  3484  1798  1804    1
  3485  1330  1435    1
  3486  1330  1433    1
  3487  1330  1431    1
  3488   832   937    1
  3489   832   935    1
  3490   832   933    1
  3491   334   439    1
  3492   334   437    1
  3493   334   435    1
  3494  2827  2934    1
  3495  2827  2932    1
  3496  2827  2922    1
  3497  2329  2436    1
  3498  2329  2434    1
  3499  2329  2424    1
  3500  1831  1938    1
  3501  1831  1936    1
  3502  1831  1926    1
  3503  4288  4296    1
  3504  4288  4299    1
  3505  4288  4294    1
  3506  3790  3798    1
  3507  3790  3801    1
  3508  3790  3796    1
  3509  3292  3300    1
  3510  3292  3303    1
  3511  3292  3298    1
  3512  2824  2929    1
  3513  2824  2927    1
  3514  2824  2925    1
  3515  2326  2431    1
  3516  2326  2429    1
  3517  2326  2427    1
  3518  1828  1933    1
  3519  1828  1931    1
  3520  1828  1929    1
  3521  4321  4428    1
  3522  4321  4426    1
  3523  4321  4416    1
  3524  3823  3930    1
  3525  3823  3928    1
  3526  3823  3918    1
  3527  3325  3432    1
  3528  3325  3430    1
  3529  3325  3420    1
  3530  1326  1316    1
  3531   828   818    1
  3532   330   320    1
  3533  1324  1316    1
  3534  4318  4423    1
  3535  4318  4421    1
  3536  4318  4419    1
  3537   826   818    1
  3538  3820  3925    1
  3539  3820  3923    1
  3540  3820  3921    1
  3541   328   320    1
  3542  3322  3427    1
  3543  3322  3425    1
  3544  3322  3423    1
  3545  2820  2810    1
  3546  2322  2312    1
  3547  1824  1814    1
  3548  1352  1457    1
  3549   854   959    1
  3550   356   461    1
  3551  2818  2810    1
  3552  2320  2312    1
  3553  1822  1814    1
  3554  4314  4304    1
  3555  3816  3806    1
  3556  3318  3308    1
  3557  2846  2951    1
  3558  2348  2453    1
  3559  1850  1955    1
  3560  4312  4304    1
  3561  3814  3806    1
  3562  3316  3308    1
  3563  1327  1314    1
  3564  1327  1318    2
  3565   829   816    1
  3566   829   820    2
  3567   331   318    1
  3568   331   322    2
  3569  4340  4445    1
  3570  3842  3947    1
  3571  3344  3449    1
  3572  2821  2808    1
  3573  2821  2812    2
  3574  2323  2310    1
  3575  2323  2314    2
  3576  1825  1812    1
  3577  1825  1816    2
  3578  1328  1316    1
  3579  1328  1314    1
  3580  1328  1319    2
  3581   830   818    1
  3582   830   816    1
  3583   830   821    2
  3584   332   320    1
  3585   332   318    1
  3586   332   323    2
  3587  1420  1361    1
  3588   922   863    1
  3589   922  1362    1
  3590   424   365    1
  3591   424   864    1
  3592  1440  1332    1
  3593   942   834    1
  3594   444   336    1
  3595  4315  4302    1
  3596  4315  4306    2
  3597  3817  3804    1
  3598  3817  3808    2
  3599  3319  3306    1
  3600  3319  3310    2
  3601  2822  2810    1
  3602  2822  2808    1
  3603  2822  2813    2
  3604  2324  2312    1
  3605  2324  2310    1
  3606  2324  2315    2
  3607  1826  1814    1
  3608  1826  1812    1
  3609  1826  1817    2
  3610  1435  1336    1
  3611   937   838    1
  3612   439   340    1
  3613  2914  2855    1
  3614  2416  2357    1
  3615  2416  2856    1
  3616  1918  1859    1
  3617  1918  2358    1
  3618  1316  1325    1
  3619   818   827    1
  3620   320   329    1
  3621  2934  2826    1
  3622  2436  2328    1
  3623  1938  1830    1
  3624  1433  1336    1
  3625   935   838    1
  3626   437   340    1
  3627  1438  1332    1
  3628   940   834    1
  3629  4316  4304    1
  3630  4316  4302    1
  3631  4316  4307    2
  3632   442   336    1
  3633  3818  3806    1
  3634  3818  3804    1
  3635  3818  3809    2
  3636  3320  3308    1
  3637  3320  3306    1
  3638  3320  3311    2
  3639  2929  2830    1
  3640  2431  2332    1
  3641  1933  1834    1
  3642  4408  4349    1
  3643  3910  3851    1
  3644  3910  4350    1
  3645  3412  3353    1
  3646  3412  3852    1
  3647  2810  2819    1
  3648  2312  2321    1
  3649  1814  1823    1
  3650  4428  4320    1
  3651  3930  3822    1
  3652  3432  3324    1
  3653  2927  2830    1
  3654  2429  2332    1
  3655  1931  1834    1
  3656  2932  2826    1
  3657  2434  2328    1
  3658  1936  1830    1
  3659  4423  4324    1
  3660  3925  3826    1
  3661  3427  3328    1
  3662  1457  1336    1
  3663   959   838    1
  3664   461   340    1
  3665  4304  4313    1
  3666  3806  3815    1
  3667  3308  3317    1
  3668  4421  4324    1
  3669  3923  3826    1
  3670  3425  3328    1
  3671  4426  4320    1
  3672  3928  3822    1
  3673  3430  3324    1
  3674  2951  2830    1
  3675  2453  2332    1
  3676  1955  1834    1
  3677  4445  4324    1
  3678  3947  3826    1
  3679  3449  3328    1
  3680  1428  1374    1
  3681   930   876    1
  3682   432   378    1
  3683  1431  1371    1
  3684   933   873    1
  3685   435   375    1
  3686  2922  2868    1
  3687  2424  2370    1
  3688  1926  1872    1
  3689  2925  2865    1
  3690  2427  2367    1
  3691  1929  1869    1
  3692  4416  4362    1
  3693  3918  3864    1
  3694  3420  3366    1
  3695  4419  4359    1
  3696  3921  3861    1
  3697  3423  3363    1
  3698  1336  1443    1
  3699  1336  1425    1
  3700  1336  1441    1
  3701   838   945    1
  3702   838   927    1
  3703   838   943    1
  3704   340   447    1
  3705   340   429    1
  3706   340   445    1
  3707  1332  1449    1
  3708  1332  1429    1
  3709  1332  1451    1
  3710   834   951    1
  3711   834   931    1
  3712   834   953    1
  3713   336   453    1
  3714   336   433    1
  3715   336   455    1
  3716  2830  2937    1
  3717  2830  2919    1
  3718  2830  2935    1
  3719  2332  2439    1
  3720  2332  2421    1
  3721  2332  2437    1
  3722  1834  1941    1
  3723  1834  1923    1
  3724  1834  1939    1
  3725  2826  2943    1
  3726  2826  2923    1
  3727  2826  2945    1
  3728  2328  2445    1
  3729  2328  2425    1
  3730  2328  2447    1
  3731  1830  1947    1
  3732  1830  1927    1
  3733  1830  1949    1
  3734  4324  4431    1
  3735  4324  4413    1
  3736  4324  4429    1
  3737  3826  3933    1
  3738  3826  3915    1
  3739  3826  3931    1
  3740  3328  3435    1
  3741  3328  3417    1
  3742  3328  3433    1
  3743  4320  4437    1
  3744  4320  4417    1
  3745  4320  4439    1
  3746  3822  3939    1
  3747  3822  3919    1
  3748  3822  3941    1
  3749  3324  3441    1
  3750  3324  3421    1
  3751  3324  3443    1
  3752  1358  1382    1
  3753   860   884    1
  3754   362   386    1
  3755  1356  1385    1
  3756   858   887    1
  3757   360   389    1
  3758  2852  2876    1
  3759  2354  2378    1
  3760  1856  1880    1
  3761  2850  2879    1
  3762  2352  2381    1
  3763  1854  1883    1
  3764  4346  4370    1
  3765  3848  3872    1
  3766  3350  3374    1
  3767  4344  4373    1
  3768  3846  3875    1
  3769  3348  3377    1
  3770  1374  1429    1
  3771  1374  1378    2
  3772   876   931    1
  3773   876   880    1
  3774   378   433    1
  3775   378   382    1
  3776  1371  1425    1
  3777  1371  1375    1
  3778   873   927    1
  3779   873   877    1
  3780   375   429    1
  3781   375   379    1
  3782  2868  2923    1
  3783  2868  2872    2
  3784  2370  2425    1
  3785  2370  2374    1
  3786  1872  1927    1
  3787  1872  1876    1
  3788  2865  2919    1
  3789  2865  2869    1
  3790  2367  2421    1
  3791  2367  2371    1
  3792  1869  1923    1
  3793  1869  1873    1
  3794  4362  4417    1
  3795  4362  4366    2
  3796  3864  3919    1
  3797  3864  3868    1
  3798  3366  3421    1
  3799  3366  3370    1
  3800  1449  1397    1
  3801   951   899    1
  3802   453   401    1
  3803  1443  1397    1
  3804   945   899    1
  3805   447   401    1
  3806  4359  4413    1
  3807  4359  4363    2
  3808  3861  3915    1
  3809  3861  3865    2
  3810  3363  3417    1
  3811  3363  3367    2
  3812  2943  2891    1
  3813  2445  2393    1
  3814  1947  1895    1
  3815  2937  2891    1
  3816  2439  2393    1
  3817  1941  1895    1
  3818  4437  4385    1
  3819  3939  3887    1
  3820  3441  3389    1
  3821  4431  4385    1
  3822  1451  1395    1
  3823  3933  3887    1
  3824   953   897    1
  3825  3435  3389    1
  3826   455   399    1
  3827  1441  1395    1
  3828   943   897    1
  3829   445   399    1
  3830  2945  2889    1
  3831  2447  2391    1
  3832  1949  1893    1
  3833  1397  1389    2
  3834   899   891    1
  3835   401   393    1
  3836  2935  2889    1
  3837  2437  2391    1
  3838  1939  1893    1
  3839  4439  4383    1
  3840  3941  3885    1
  3841  3443  3387    1
  3842  2891  2883    2
  3843  1382  1378    1
  3844  2393  2385    1
  3845   884   880   ar
  3846   884  1384   ar
  3847  1895  1887    1
  3848   386   382   ar
  3849   386   886   ar
  3850  4429  4383    1
  3851  3931  3885    1
  3852  3433  3387    1
  3853  1395  1387    1
  3854   897   889    1
  3855  1385  1375   ar
  3856  1385  2874   ar
  3857   399   391    1
  3858   887   877   ar
  3859   887  2376   ar
  3860   389   379   ar
  3861   389  1878   ar
  3862  4385  4377    2
  3863  2876  2872    1
  3864  3887  3879    2
  3865  2378  2374   ar
  3866  2378  2878   ar
  3867  3389  3381    2
  3868  1880  1876   ar
  3869  1880  2380   ar
  3870  2889  2881    1
  3871  2391  2383    1
  3872  2879  2869   ar
  3873  2879  4368   ar
  3874  1893  1885    1
  3875  2381  2371   ar
  3876  2381  3870   ar
  3877  1883  1873   ar
  3878  1883  3372   ar
  3879  4370  4366    1
  3880  3872  3868   ar
  3881  3872  4372   ar
  3882  1366  1422    1
  3883  3374  3370   ar
  3884  3374  3874   ar
  3885   868   924    1
  3886   370   426    1
  3887  4383  4375    1
  3888  3885  3877    1
  3889  4373  4363    1
  3890  3387  3379    1
  3891  3875  3865    1
  3892  3377  3367    1
  3893  2860  2916    1
  3894  2362  2418    1
  3895  1864  1920    1
  3896  1378  1383    1
  3897   880   885   ar
  3898   382   387   ar
  3899  4354  4410    1
  3900  3856  3912    1
  3901  3358  3414    1
  3902  1375  1379   ar
  3903   877   881   ar
  3904   379   383   ar
  3905  2872  2877    1
  3906  2374  2379   ar
  3907  1876  1881   ar
  3908  1360  1419    1
  3909   862   921    1
  3910   364   423    1
  3911  2869  2873   ar
  3912  2371  2375   ar
  3913  1873  1877   ar
  3914  4366  4371    1
  3915  3868  3873   ar
  3916  3370  3375   ar
  3917  2854  2913    1
  3918  2356  2415    1
  3919  1858  1917    1
  3920  1357  1380    1
  3921   859   882    1
  3922   361   384    1
  3923  1339  1405    1
  3924   841   907    1
  3925   343   409    1
  3926  4363  4367    1
  3927  3865  3869    1
  3928  3367  3371    1
  3929  4348  4407    1
  3930  3850  3909    1
  3931  3352  3411    1
  3932  1389  1405    1
  3933  1389  1411    1
  3934   891   907   ar
  3935   891   913   ar
  3936   393   409   ar
  3937   393   415   ar
  3938  1346  1413    1
  3939   848   915    1
  3940   350   417    1
  3941  2851  2874    1
  3942  2353  2376    1
  3943  1855  1878    1
  3944  2833  2899    1
  3945  2335  2401    1
  3946  1837  1903    1
  3947  1387  1413   ar
  3948  1387  1403   ar
  3949  1353  1384    1
  3950   889   915   ar
  3951   889   905   ar
  3952   855   886    1
  3953   391   417   ar
  3954   391   407   ar
  3955   357   388    1
  3956  2883  2899    1
  3957  2883  2905    1
  3958  2385  2401   ar
  3959  2385  2407   ar
  3960  1887  1903   ar
  3961  1887  1909   ar
  3962  2840  2907    1
  3963  2342  2409    1
  3964  1844  1911    1
  3965  4345  4368    1
  3966  3847  3870    1
  3967  3349  3372    1
  3968  1422  1365    1
  3969  1422  1411    1
  3970   924   867    1
  3971   924   913    1
  3972   426   369    1
  3973   426   415    1
  3974  4327  4393    1
  3975  3829  3895    1
  3976  3331  3397    1
  3977  2881  2907   ar
  3978  2881  2897   ar
  3979  2847  2878    1
  3980  2383  2409   ar
  3981  2383  2399   ar
  3982  2349  2380    1
  3983  1885  1911   ar
  3984  1885  1901   ar
  3985  1851  1882    1
  3986  4377  4393    1
  3987  4377  4399    1
  3988  3879  3895    1
  3989  3879  3901    1
  3990  3381  3397    1
  3991  3381  3403    1
  3992  4334  4401    1
  3993  3836  3903    1
  3994  3338  3405    1
  3995  1380  1376    1
  3996   882   878    1
  3997   384   380    1
  3998  2916  2859    1
  3999  2916  2905    1
  4000  2418  2361    1
  4001  2418  2407    1
  4002  1920  1863    1
  4003  1920  1909    1
  4004  4375  4401   ar
  4005  4375  4391   ar
  4006  4341  4372    1
  4007  3877  3903   ar
  4008  3877  3893   ar
  4009  3843  3874    1
  4010  3379  3405   ar
  4011  3379  3395   ar
  4012  3345  3376    1
  4013   907  2906   ar
  4014  1413  1404   ar
  4015   409  2408   ar
  4016   915   906   ar
  4017   417   408   ar
  4018  1384  1377   ar
  4019   886   879   ar
  4020   388   381    1
  4021  2874  2870   ar
  4022  2376  2372   ar
  4023  1878  1874   ar
  4024  1419  1359    1
  4025  1419  1403    1
  4026   921   861    1
  4027   921   905    1
  4028   423   363    1
  4029   423   407    1
  4030  4410  4353    1
  4031  4410  4399    1
  4032  3912  3855    1
  4033  3912  3901    1
  4034  3414  3357    1
  4035  3414  3403    1
  4036   913  2900   ar
  4037   415  2402   ar
  4038  2401  4400   ar
  4039  2907  2898   ar
  4040  1903  3902   ar
  4041  2409  2400   ar
  4042  1911  1902   ar
  4043  2878  2871   ar
  4044  2380  2373   ar
  4045  1882  1875    1
  4046  4368  4364   ar
  4047  3870  3866   ar
  4048  3372  3368   ar
  4049  2913  2853    1
  4050  2913  2897    1
  4051  2415  2355    1
  4052  2415  2399    1
  4053  1917  1857    1
  4054  1917  1901    1
  4055  1403  1414   ar
  4056   905   916   ar
  4057   407   418   ar
  4058  2407  4394   ar
  4059  1909  3896   ar
  4060  4401  4392   ar
  4061  3903  3894   ar
  4062  3405  3396   ar
  4063  4372  4365   ar
  4064  3874  3867   ar
  4065  3376  3369    1
  4066  4407  4347    1
  4067  4407  4391    1
  4068  3909  3849    1
  4069  3909  3893    1
  4070  3411  3351    1
  4071  3411  3395    1
  4072  2897  2908   ar
  4073  2399  2410   ar
  4074  1901  1912   ar
  4075  4391  4402   ar
  4076  3893  3904   ar
  4077  3395  3406   ar
  4078  1404  1337    1
  4079  1404  1388   ar
  4080   906   839    1
  4081   906   890   ar
  4082   408   341    1
  4083   408   392   ar
  4084  1368  1423    1
  4085   870   925    1
  4086   372   427    1
  4087  1412  1348    1
  4088  1412  1390    1
  4089   914   850    1
  4090   914   892    1
  4091   416   352    1
  4092   416   394    1
  4093  1383  1354    1
  4094   885   856    1
  4095   885  1381   ar
  4096   387   358    1
  4097   387   883   ar
  4098  2898  2831    1
  4099  2898  2882   ar
  4100  2400  2333    1
  4101  2400  2384   ar
  4102  1902  1835    1
  4103  1902  1886   ar
  4104  2862  2917    1
  4105  2364  2419    1
  4106  1866  1921    1
  4107  1406  1390    1
  4108  1406  1338    1
  4109   908   892    1
  4110   908   840    1
  4111  2906  2842    1
  4112  2906  2884   ar
  4113   410   394    1
  4114   410   342    1
  4115  2408  2344    1
  4116  2408  2386   ar
  4117  1910  1846    1
  4118  1910  1888    1
  4119  1414  1388   ar
  4120  1414  1347    1
  4121   916   890   ar
  4122   916   849    1
  4123   418   392   ar
  4124   418   351    1
  4125  2877  2848    1
  4126  2379  2350    1
  4127  2379  2875   ar
  4128  1881  1852    1
  4129  1881  2377   ar
  4130  4392  4325    1
  4131  4392  4376   ar
  4132  3894  3827    1
  4133  3894  3878   ar
  4134  3396  3329    1
  4135  3396  3380   ar
  4136  4356  4411    1
  4137  3858  3913    1
  4138  3360  3415    1
  4139  2900  2884   ar
  4140  2900  2832    1
  4141  2402  2386   ar
  4142  2402  2334    1
  4143  4400  4336    1
  4144  4400  4378   ar
  4145  1904  1888    1
  4146  1904  1836    1
  4147  3902  3838    1
  4148  3902  3880   ar
  4149  3404  3340    1
  4150  3404  3382    1
  4151  1379  1423    1
  4152  1379  2880   ar
  4153   881   925    1
  4154   881  2382   ar
  4155   383   427    1
  4156   383  1884   ar
  4157  2908  2882   ar
  4158  2908  2841    1
  4159  2410  2384   ar
  4160  2410  2343    1
  4161  1912  1886   ar
  4162  1912  1845    1
  4163  4371  4342    1
  4164  3873  3844    1
  4165  3873  4369   ar
  4166  3375  3346    1
  4167  3375  3871   ar
  4168  4394  4378   ar
  4169  4394  4326    1
  4170  3896  3880   ar
  4171  3896  3828    1
  4172  3398  3382    1
  4173  3398  3330    1
  4174  2873  2917    1
  4175  2873  4374   ar
  4176  2375  2419    1
  4177  2375  3876   ar
  4178  1877  1921    1
  4179  1877  3378   ar
  4180  1388  1396    1
  4181   890   898    1
  4182   392   400    1
  4183  4402  4376   ar
  4184  4402  4335    1
  4185  3904  3878   ar
  4186  3904  3837    1
  4187  3406  3380   ar
  4188  3406  3339    1
  4189  1390  1398    2
  4190   892   900    2
  4191   394   402    2
  4192  4367  4411    1
  4193  3869  3913    1
  4194  3371  3415    1
  4195  2882  2890    1
  4196  2384  2392    1
  4197  1886  1894    1
  4198  2884  2892    1
  4199  2386  2394    1
  4200  1888  1896    2
  4201  4376  4384    1
  4202  3878  3886    1
  4203  3380  3388    1
  4204  4378  4386    1
  4205  3880  3888    1
  4206  3382  3390    2
  4207  1423  1367    1
  4208   925   869    1
  4209  1376  1386    1
  4210  1376  1372    2
  4211   427   371    1
  4212   878   888    1
  4213   878   874    2
  4214   380   390    1
  4215   380   376    2
  4216  1377  1381   ar
  4217  1377  1373    1
  4218   879   883   ar
  4219   879   875    1
  4220   381   385    1
  4221   381   377    2
  4222  2917  2861    1
  4223  2419  2363    1
  4224  2870  2880   ar
  4225  2870  2866    1
  4226  1921  1865    1
  4227  2372  2382   ar
  4228  2372  2368    1
  4229  1874  1884   ar
  4230  1874  1870    1
  4231  2871  2875   ar
  4232  2871  2867    1
  4233  2373  2377   ar
  4234  2373  2369    1
  4235  1875  1879    1
  4236  1875  1871    2
  4237  4411  4355    1
  4238  3913  3857    1
  4239  4364  4374   ar
  4240  4364  4360    1
  4241  3415  3359    1
  4242  3866  3876   ar
  4243  3866  3862    1
  4244  3368  3378   ar
  4245  3368  3364    1
  4246  4365  4369   ar
  4247  4365  4361    1
  4248  3867  3871   ar
  4249  3867  3863    1
  4250  3369  3373    1
  4251  3369  3365    2
  4252  1396  1442    1
  4253  1396  1452    1
  4254   898   944    1
  4255   898   954    1
  4256   400   446    1
  4257   400   456    1
  4258  1386  1355    1
  4259   888   857    1
  4260   390   359    1
  4261  2890  2936    1
  4262  2890  2946    1
  4263  2392  2438    1
  4264  2392  2448    1
  4265  1894  1940    1
  4266  1894  1950    1
  4267  1381  1424    1
  4268   883   926    1
  4269   385   428    1
  4270  2880  2849    1
  4271  2382  2351    1
  4272  1884  1853    1
  4273  1398  1450    1
  4274  1398  1444    1
  4275   900   952    1
  4276   900   946    1
  4277   402   454    1
  4278   402   448    1
  4279  1442  1335    1
  4280   944   837    1
  4281   446   339    1
  4282  4384  4430    1
  4283  4384  4440    1
  4284  3886  3932    1
  4285  3886  3942    1
  4286  3388  3434    1
  4287  3388  3444    1
  4288  2875  2918    1
  4289  2377  2420    1
  4290  1879  1922    1
  4291  4374  4343    1
  4292  3876  3845    1
  4293  3378  3347    1
  4294  2892  2944    1
  4295  2892  2938    1
  4296  2394  2446    1
  4297  2394  2440    1
  4298  1896  1948    1
  4299  1896  1942    1
  4300  2936  2829    1
  4301  2438  2331    1
  4302  1940  1833    1
  4303  4369  4412    1
  4304  3871  3914    1
  4305  3373  3416    1
  4306  1426  1372    1
  4307  1426  1335    1
  4308   928   874    1
  4309   928   837    1
  4310   430   376    1
  4311   430   339    1
  4312  1452  1331    1
  4313   954   833    1
  4314   456   335    1
  4315  1430  1373    1
  4316  1430  1331    1
  4317   932   875    1
  4318   932   833    1
  4319   434   377    1
  4320   434   335    1
  4321  4386  4438    1
  4322  4386  4432    1
  4323  3888  3940    1
  4324  3888  3934    1
  4325  3390  3442    1
  4326  3390  3436    1
  4327  4430  4323    1
  4328  3932  3825    1
  4329  3434  3327    1
  4330  1450  1331    1
  4331   952   833    1
  4332   454   335    1
  4333  2920  2866    1
  4334  2920  2829    1
  4335  2422  2368    1
  4336  2422  2331    1
  4337  1924  1870    1
  4338  1924  1833    1
  4339  2946  2825    1
  4340  2448  2327    1
  4341  1950  1829    1
  4342  2924  2867    1
  4343  2924  2825    1
  4344  2426  2369    1
  4345  2426  2327    1
  4346  1928  1871    1
  4347  1928  1829    1
  4348  2944  2825    1
  4349  2446  2327    1
  4350  1948  1829    1
  4351  4414  4360    1
  4352  4414  4323    1
  4353  3916  3862    1
  4354  3916  3825    1
  4355  3418  3364    1
  4356  3418  3327    1
  4357  4440  4319    1
  4358  3942  3821    1
  4359  3444  3323    1
  4360  1444  1335    1
  4361   946   837    1
  4362   448   339    1
  4363  4418  4361    1
  4364  4418  4319    1
  4365  3920  3863    1
  4366  3920  3821    1
  4367  3422  3365    1
  4368  3422  3323    1
  4369  4438  4319    1
  4370  3940  3821    1
  4371  3442  3323    1
  4372  2938  2829    1
  4373  2440  2331    1
  4374  1942  1833    1
  4375  1372  1432    1
  4376   874   934    1
  4377   376   436    1
  4378  1373  1427    1
  4379   875   929    1
  4380   377   431    1
  4381  4432  4323    1
  4382  3934  3825    1
  4383  3436  3327    1
  4384  2866  2926    1
  4385  2368  2428    1
  4386  1870  1930    1
  4387  2867  2921    1
  4388  2369  2423    1
  4389  1871  1925    1
  4390  4360  4420    1
  4391  3862  3922    1
  4392  3364  3424    1
  4393  4361  4415    1
  4394  3863  3917    1
  4395  3365  3419    1
  4396  1475  1465    1
  4397   977   967    1
  4398   479   469    1
  4399  1424  1369    1
  4400  1424  1370    1
  4401   926   871    1
  4402   926   872    1
  4403   428   373    1
  4404   428   374    1
  4405  2969  2959    1
  4406  2471  2461    1
  4407  1973  1963    1
  4408  2918  2863    1
  4409  2918  2864    1
  4410  2420  2365    1
  4411  2420  2366    1
  4412  1922  1867    1
  4413  1922  1868    1
  4414  4463  4453    1
  4415  3965  3955    1
  4416  3467  3457    1
  4417  4412  4357    1
  4418  4412  4358    1
  4419  3914  3859    1
  4420  3914  3860    1
  4421  3416  3361    1
  4422  3416  3362    1
  4423  1335  1458    1
  4424  1335  1434    1
  4425  1335  1436    1
  4426   837   960    1
  4427   837   936    1
  4428   837   938    1
  4429   339   462    1
  4430   339   438    1
  4431   339   440    1
  4432  1331  1437    1
  4433  1331  1439    1
  4434   833   939    1
  4435   833   941    1
  4436   335   441    1
  4437   335   443    1
  4438  1471  1465    1
  4439   973   967    1
  4440   475   469    1
  4441  2829  2952    1
  4442  2829  2928    1
  4443  2829  2930    1
  4444  2331  2454    1
  4445  2331  2430    1
  4446  2331  2432    1
  4447  1833  1956    1
  4448  1833  1932    1
  4449  1833  1934    1
  4450  2825  2931    1
  4451  2825  2933    1
  4452  2327  2433    1
  4453  2327  2435    1
  4454  1829  1935    1
  4455  1829  1937    1
  4456  2965  2959    1
  4457  2467  2461    1
  4458  1969  1963    1
  4459  1476  1468    1
  4460   978   970    1
  4461   480   472    1
  4462  4323  4446    1
  4463  4323  4422    1
  4464  4323  4424    1
  4465  3825  3948    1
  4466  3825  3924    1
  4467  3825  3926    1
  4468  3327  3450    1
  4469  3327  3426    1
  4470  3327  3428    1
  4471  4319  4425    1
  4472  4319  4427    1
  4473  3821  3927    1
  4474  3821  3929    1
  4475  3323  3429    1
  4476  3323  3431    1
  4477  4459  4453    1
  4478  3961  3955    1
  4479  3463  3457    1
  4480  1432  1329    1
  4481   934   831    1
  4482   436   333    1
  4483  2970  2962    1
  4484  2472  2464    1
  4485  1974  1966    1
  4486  1427  1334    1
  4487   929   836    1
  4488   431   338    1
  4489  2926  2823    1
  4490  2428  2325    1
  4491  1930  1827    1
  4492  4464  4456    1
  4493  3966  3958    1
  4494  3468  3460    1
  4495  1363  1421    1
  4496   865   923    1
  4497   367   425    1
  4498  1465  1468    1
  4499  1465  1473    1
  4500   967   970    1
  4501   967   975    1
  4502   469   472    1
  4503   469   477    1
  4504  2921  2828    1
  4505  2423  2330    1
  4506  1925  1832    1
  4507  4420  4317    1
  4508  3922  3819    1
  4509  3424  3321    1
  4510  2857  2915    1
  4511  2359  2417    1
  4512  1861  1919    1
  4513  2959  2962    1
  4514  2959  2967    1
  4515  2461  2464    1
  4516  2461  2469    1
  4517  1963  1966    1
  4518  1963  1971    1
  4519  4415  4322    1
  4520  3917  3824    1
  4521  3419  3326    1
  4522  4351  4409    1
  4523  3853  3911    1
  4524  3355  3413    1
  4525  4453  4456    1
  4526  4453  4461    1
  4527  3955  3958    1
  4528  3955  3963    1
  4529  3457  3460    1
  4530  3457  3465    1
  4531  1458  1351    1
  4532   960   853    1
  4533   462   355    1
  4534  1470  1464    1
  4535   972   966    1
  4536   474   468    1
  4537  2952  2845    1
  4538  2454  2347    1
  4539  1956  1849    1
  4540  1468  1479    1
  4541  1468  1462    1
  4542  1434  1329    1
  4543   970   981    1
  4544   970   964    1
  4545   936   831    1
  4546   472   483    1
  4547   472   466    1
  4548   438   333    1
  4549  1437  1334    1
  4550   939   836    1
  4551   441   338    1
  4552  2964  2958    1
  4553  2466  2460    1
  4554  1968  1962    1
  4555  4446  4339    1
  4556  3948  3841    1
  4557  3450  3343    1
  4558  2962  2973    1
  4559  2962  2956    1
  4560  2928  2823    1
  4561  2464  2475    1
  4562  2464  2458    1
  4563  2430  2325    1
  4564  1966  1977    1
  4565  1966  1960    1
  4566  1932  1827    1
  4567  2931  2828    1
  4568  2433  2330    1
  4569  1935  1832    1
  4570  4458  4452    1
  4571  3960  3954    1
  4572  3462  3456    1
  4573  1436  1329    1
  4574   938   831    1
  4575   440   333    1
  4576  1364  1421    1
  4577   866   923    1
  4578   368   425    1
  4579  4456  4467    1
  4580  4456  4450    1
  4581  4422  4317    1
  4582  3958  3969    1
  4583  3958  3952    1
  4584  3924  3819    1
  4585  3460  3471    1
  4586  3460  3454    1
  4587  3426  3321    1
  4588  4425  4322    1
  4589  3927  3824    1
  4590  3429  3326    1
  4591  1421  1415    1
  4592   923   917    1
  4593   425   419    1
  4594  1439  1334    1
  4595   941   836    1
  4596   443   338    1
  4597  2930  2823    1
  4598  2432  2325    1
  4599  1934  1827    1
  4600  2858  2915    1
  4601  2360  2417    1
  4602  1862  1919    1
  4603  2915  2909    1
  4604  2417  2411    1
  4605  1919  1913    1
  4606  2933  2828    1
  4607  2435  2330    1
  4608  1937  1832    1
  4609  4424  4317    1
  4610  3926  3819    1
  4611  3428  3321    1
  4612  4352  4409    1
  4613  3854  3911    1
  4614  3356  3413    1
  4615  4409  4403    1
  4616  3911  3905    1
  4617  3413  3407    1
  4618  4427  4322    1
  4619  3929  3824    1
  4620  3431  3326    1
  4621  1342  1410    1
  4622   844   912    1
  4623   346   414    1
  4624  2836  2904    1
  4625  2338  2406    1
  4626  1840  1908    1
  4627  1344  1417    1
  4628   846   919    1
  4629   348   421    1
  4630  1340  1408    1
  4631   842   910    1
  4632   344   412    1
  4633  4330  4398    1
  4634  3832  3900    1
  4635  3334  3402    1
  4636  2838  2911    1
  4637  2340  2413    1
  4638  1842  1915    1
  4639  2834  2902    1
  4640  2336  2404    1
  4641  1838  1906    1
  4642  4332  4405    1
  4643  3834  3907    1
  4644  3336  3409    1
  4645  1464  1462    1
  4646  1464  1463    2
  4647   966   964    1
  4648   966   965    2
  4649   468   466    1
  4650   468   467    2
  4651  1329  1454    1
  4652  1329  1456    1
  4653   831   956    1
  4654   831   958    1
  4655   333   458    1
  4656   333   460    1
  4657  4328  4396    1
  4658  3830  3898    1
  4659  3332  3400    1
  4660  1334  1447    1
  4661  1334  1445    1
  4662   836   949    1
  4663   836   947    1
  4664   338   451    1
  4665   338   449    1
  4666  2958  2956    1
  4667  2958  2957    2
  4668  2460  2458    1
  4669  2460  2459    2
  4670  1962  1960    1
  4671  1962  1961    2
  4672  2823  2948    1
  4673  2823  2950    1
  4674  2325  2450    1
  4675  2325  2452    1
  4676  1827  1952    1
  4677  1827  1954    1
  4678  1462  1467    1
  4679   964   969    1
  4680   466   471    1
  4681  2828  2941    1
  4682  2828  2939    1
  4683  2330  2443    1
  4684  2330  2441    1
  4685  1832  1945    1
  4686  1832  1943    1
  4687  4452  4450    1
  4688  4452  4451    2
  4689  3954  3952    1
  4690  3954  3953    2
  4691  3456  3454    1
  4692  3456  3455    2
  4693  4317  4442    1
  4694  4317  4444    1
  4695  3819  3944    1
  4696  3819  3946    1
  4697  3321  3446    1
  4698  3321  3448    1
  4699  2956  2961    1
  4700  2458  2463    1
  4701  1960  1965    1
  4702  4322  4435    1
  4703  4322  4433    1
  4704  3824  3937    1
  4705  3824  3935    1
  4706  3326  3439    1
  4707  3326  3437    1
  4708  4450  4455    1
  4709  3952  3957    1
  4710  3454  3459    1
  4711  1415  2904    2
  4712   917  2406    2
  4713   419  1908    2
  4714  2909  4398    2
  4715  2411  3900    2
  4716  1913  3402    2
  4717  1417   910    2
  4718   919   412    2
  4719  2911  2404    2
  4720  2413  1906    2
  4721  4405  3898    2
  4722  3907  3400    2
  4723  1463  1469    1
  4724  1463  1461    1
  4725   965   971    1
  4726   965   963    1
  4727   467   473    1
  4728   467   465    1
  4729  2957  2963    1
  4730  2957  2955    1
  4731  2459  2465    1
  4732  2459  2457    1
  4733  1961  1967    1
  4734  1961  1959    1
  4735  4451  4457    1
  4736  4451  4449    1
  4737  3953  3959    1
  4738  3953  3951    1
  4739  3455  3461    1
  4740  3455  3453    1
  4741  1467  1478    1
  4742  1467  1461    1
  4743   969   980    1
  4744   969   963    1
  4745   471   482    1
  4746   471   465    1
  4747  2961  2972    1
  4748  2961  2955    1
  4749  2463  2474    1
  4750  2463  2457    1
  4751  1965  1976    1
  4752  1965  1959    1
  4753  4455  4466    1
  4754  4455  4449    1
  4755  3957  3968    1
  4756  3957  3951    1
  4757  3459  3470    1
  4758  3459  3453    1
  4759  1489  1481    1
  4760   991   983    1
  4761   493   485    1
  4762  1461  1466    1
  4763   963   968    1
  4764   465   470    1
  4765  2983  2975    1
  4766  2485  2477    1
  4767  1987  1979    1
  4768  2955  2960    1
  4769  2457  2462    1
  4770  1959  1964    1
  4771  4477  4469    1
  4772  3979  3971    1
  4773  3481  3473    1
  4774  4449  4454    1
  4775  3951  3956    1
  4776  3453  3458    1
  4777  1488  1481    1
  4778   990   983    1
  4779   492   485    1
  4780  2982  2975    1
  4781  2484  2477    1
  4782  1986  1979    1
  4783  4476  4469    1
  4784  3978  3971    1
  4785  3480  3473    1
  4786  1486  1494    2
  4787   988   996    2
  4788   490   498    2
  4789  1481  1487    1
  4790  1481  1493    1
  4791   983   989    1
  4792   983   995    1
  4793   485   491    1
  4794   485   497    1
  4795  2980  2988    2
  4796  2482  2490    2
  4797  1984  1992    2
  4798  2975  2981    1
  4799  2975  2987    1
  4800  2477  2483    1
  4801  2477  2489    1
  4802  1979  1985    1
  4803  1979  1991    1
  4804  4474  4482    2
  4805  3976  3984    2
  4806  3478  3486    2
  4807  4469  4475    1
  4808  4469  4481    1
  4809  3971  3977    1
  4810  3971  3983    1
  4811  3473  3479    1
  4812  3473  3485    1
  4813  1483  1493    2
  4814   985   995    2
  4815   487   497    2
  4816  2977  2987    2
  4817  2479  2489    2
  4818  1981  1991    2
  4819  4471  4481    2
  4820  3973  3983    2
  4821  3475  3485    2
  4822  1466  1474    1
  4823  1466  1477    1
  4824  1466  1472    1
  4825   968   976    1
  4826   968   979    1
  4827   968   974    1
  4828   470   478    1
  4829   470   481    1
  4830   470   476    1
  4831  2960  2968    1
  4832  2960  2971    1
  4833  2960  2966    1
  4834  2462  2470    1
  4835  2462  2473    1
  4836  2462  2468    1
  4837  1964  1972    1
  4838  1964  1975    1
  4839  1964  1970    1
  4840  4454  4462    1
  4841  4454  4465    1
  4842  4454  4460    1
  4843  3956  3964    1
  4844  3956  3967    1
  4845  3956  3962    1
  4846  3458  3466    1
  4847  3458  3469    1
  4848  3458  3464    1
  4849  1492  1482    1
  4850   994   984    1
  4851   496   486    1
  4852  1490  1482    1
  4853   992   984    1
  4854   494   486    1
  4855  2986  2976    1
  4856  2488  2478    1
  4857  1990  1980    1
  4858  2984  2976    1
  4859  2486  2478    1
  4860  1988  1980    1
  4861  4480  4470    1
  4862  3982  3972    1
  4863  3484  3474    1
  4864  4478  4470    1
  4865  3980  3972    1
  4866  3482  3474    1
  4867  1493  1480    1
  4868  1493  1484    2
  4869   995   982    1
  4870   995   986    2
  4871   497   484    1
  4872   497   488    2
  4873  2987  2974    1
  4874  2987  2978    2
  4875  2489  2476    1
  4876  2489  2480    2
  4877  1991  1978    1
  4878  1991  1982    2
  4879  1494  1482    1
  4880  1494  1480    1
  4881  1494  1485    2
  4882   996   984    1
  4883   996   982    1
  4884   996   987    2
  4885   498   486    1
  4886   498   484    1
  4887   498   489    2
  4888  4481  4468    1
  4889  4481  4472    2
  4890  3983  3970    1
  4891  3983  3974    2
  4892  3485  3472    1
  4893  3485  3476    2
  4894  2988  2976    1
  4895  2988  2974    1
  4896  2988  2979    2
  4897  2490  2478    1
  4898  2490  2476    1
  4899  2490  2481    2
  4900  1992  1980    1
  4901  1992  1978    1
  4902  1992  1983    2
  4903  1482  1491    1
  4904   984   993    1
  4905   486   495    1
  4906  4482  4470    1
  4907  4482  4468    1
  4908  4482  4473    2
  4909  3984  3972    1
  4910  3984  3970    1
  4911  3984  3975    2
  4912  3486  3474    1
  4913  3486  3472    1
  4914  3486  3477    2
  4915  2976  2985    1
  4916  2478  2487    1
  4917  1980  1989    1
  4918  4470  4479    1
  4919  3972  3981    1
  4920  3474  3483    1
