@<TRIPOS>MOLECULE
Lattice="47.998314632938815 -1.671794829 0.268704666 -19.551087764410504 43.837528774156056 -0.16955525700000001 -13.90393925690583 -21.19930898781928 39.28382773573439" Properties=species:S:1:pos:R:3 i=120 E=-1613.7995642598 pbc="T T T"
 4266 4587 0 0 0
SMALL
GASTEIGER

@<TRIPOS>ATOM
      1 TI         -2.8554    2.2298   11.2464 Ti      1  UNL1        0.0000
      2 TI          7.9750    5.1110    1.8816 Ti      1  UNL1        0.0000
      3 TI          1.2413   -1.7064    9.4264 Ti      1  UNL1        0.0000
      4 TI          2.7524    7.4557    3.6534 Ti      1  UNL1        0.0000
      5 TI          1.7539    9.1340    1.7490 Ti      1  UNL1        0.0000
      6 TI          3.1295   -1.9608   11.3798 Ti      1  UNL1        0.0000
      7 TI         -1.9062    0.4939    9.3549 Ti      1  UNL1        0.0000
      8 TI          5.9872    5.4135    3.7291 Ti      1  UNL1        0.0000
      9 H          -2.3536    6.1268   11.0269 H       1  UNL1        0.0000
     10 H           8.7838    1.2049    2.2023 H       1  UNL1        0.0000
     11 H          -6.8153    1.4731   10.8639 H       1  UNL1        0.0000
     12 H          11.3572    7.1153    2.0822 H       1  UNL1        0.0000
     13 H           4.1051   -5.9953   10.9939 H       1  UNL1        0.0000
     14 H          -2.3047    8.5441    2.0711 H       1  UNL1        0.0000
     15 H           2.2483    7.4972   -0.1241 H       1  UNL1        0.0000
     16 H           6.0995    4.8683    0.1817 H       1  UNL1        0.0000
     17 H           3.6394   -2.6279    5.8687 H       1  UNL1        0.0000
     18 H           1.0290    9.2927    7.2723 H       1  UNL1        0.0000
     19 H          -5.9789    3.8825    8.9990 H       1  UNL1        0.0000
     20 H          10.7298    3.0267    4.1876 H       1  UNL1        0.0000
     21 H          -3.6778    2.4351    5.6652 H       1  UNL1        0.0000
     22 H          -1.3462   10.9619    4.1022 H       1  UNL1        0.0000
     23 H           2.1461   12.2368    2.6045 H       1  UNL1        0.0000
     24 H           8.6260   -0.8139    3.4048 H      49  UNL49       0.0000
     25 H           4.8451    7.1358    2.3148 H       1  UNL1        0.0000
     26 H           0.1605    0.1420   10.7200 H       1  UNL1        0.0000
     27 H           7.3642   -0.0259    9.7694 H       1  UNL1        0.0000
     28 H           5.8831   -0.4950   10.5168 H       1  UNL1        0.0000
     29 H           7.9383    4.4077    8.6705 H       1  UNL1        0.0000
     30 H           7.3686    4.7663    7.0520 H       1  UNL1        0.0000
     31 H           6.8754   -4.9808    9.5794 H       1  UNL1        0.0000
     32 H           5.5962   -3.8802   10.0368 H       1  UNL1        0.0000
     33 C           8.5531    4.3697    4.7451 C.3     1  UNL1        0.0000
     34 C          -3.8160    2.4911    8.3994 C.3     1  UNL1        0.0000
     35 C           3.8218   -2.7171    8.5017 C.3     1  UNL1        0.0000
     36 C           0.8163    9.4262    4.6127 C.3     1  UNL1        0.0000
     37 C           9.4491    3.7654    5.7403 C.ar    1  UNL1        0.0000
     38 C          -4.7479    3.1162    7.4223 C.2     1  UNL1        0.0000
     39 C           4.7619   -3.3315    7.5545 C.2     1  UNL1        0.0000
     40 C          -0.0735   10.0730    5.6125 C.ar    1  UNL1        0.0000
     41 C           9.2003    3.8403    7.1467 C.ar    1  UNL1        0.0000
     42 C          -4.5315    2.9962    6.0343 C.3     1  UNL1        0.0000
     43 C           5.8914   -4.0918    8.0076 C.2     1  UNL1        0.0000
     44 C          -1.1682   10.8460    5.1676 C.ar    1  UNL1        0.0000
     45 C           0.1810    9.9022    6.9674 C.ar    1  UNL1        0.0000
     46 C           4.5142   -3.1994    6.1706 C.3     1  UNL1        0.0000
     47 C          10.5828    3.0664    5.2646 C.ar    1  UNL1        0.0000
     48 C          -5.8481    3.8086    7.9210 C.2     1  UNL1        0.0000
     49 C           8.7648    1.2840    0.0582 C.2     1  UNL1        0.0000
     50 C           2.2951   13.0756    0.0832 C.2     1  UNL1        0.0000
     51 C          11.2493    7.0471   -0.0678 C.2     1  UNL1        0.0000
     52 C          -2.1091    8.5895   -0.0872 C.2     1  UNL1        0.0000
     53 C           3.4992    5.1125    5.6180 C.3     1  UNL1        0.0000
     54 C          -1.2569   -1.9819    7.5361 C.2     1  UNL1        0.0000
     55 C           8.6290    2.7388    0.0350 C.2     1  UNL1        0.0000
     56 C           2.2024   11.6421    0.0457 C.2     1  UNL1        0.0000
     57 C           9.9514    6.4303   -0.0210 C.2     1  UNL1        0.0000
     58 C          -0.7067    9.0039   -0.0628 C.2     1  UNL1        0.0000
     59 C           8.8042    0.6149    1.2879 C.3     1  UNL1        0.0000
     60 C          -2.3426    6.7152   11.9408 C.ar    1  UNL1        0.0000
     61 C          11.9046    7.3219    1.1661 C.2     1  UNL1        0.0000
     62 C          -7.3768    1.2938   11.7793 C.3     1  UNL1        0.0000
     63 C           7.3089    0.2494   11.7938 C.ar    1  UNL1        0.0000
     64 C          -2.8062    8.3591    1.1253 C.3     1  UNL1        0.0000
     65 C           4.1467   -6.5225   11.9429 C.3     1  UNL1        0.0000
     66 C           2.3089   13.8268    1.3125 C.2     1  UNL1        0.0000
     67 N           2.3639   13.2279    2.5506 N.pl3   1  UNL1        0.0000
     68 N           6.7299    0.0666   10.5548 N.pl3   1  UNL1        0.0000
     69 N           8.1194    4.4866    7.6780 N.pl3   1  UNL1        0.0000
     70 N           6.2224   -4.2500    9.3250 N.pl3   1  UNL1        0.0000
     71 O           7.3767    4.7748    5.1109 O.3     1  UNL1        0.0000
     72 O          -3.0470    1.5403    8.0011 O.3     1  UNL1        0.0000
     73 O           4.2032   -2.5927    9.7228 O.3     1  UNL1        0.0000
     74 O           0.7504    9.8559    3.4131 O.3     1  UNL1        0.0000
     75 O           1.5868    8.4690    4.9992 O.3     1  UNL1        0.0000
     76 O           2.6513   -2.3487    8.0962 O.3     1  UNL1        0.0000
     77 O           8.9649    4.4505    3.5334 O.3     1  UNL1        0.0000
     78 O          -3.8580    2.9274    9.5991 O.3     1  UNL1        0.0000
     79 O           6.2924    4.1956    2.5344 O.3     1  UNL1        0.0000
     80 O          -1.3538    2.0542   10.0994 O.3     1  UNL1        0.0000
     81 O           7.2312    6.4829    2.9843 O.3     1  UNL1        0.0000
     82 O          -3.1060    0.3296   10.5921 O.3     1  UNL1        0.0000
     83 O           1.5006   -2.8784   10.6868 O.3     1  UNL1        0.0000
     84 O           3.2690    9.0170    2.9149 O.3     1  UNL1        0.0000
     85 O           2.4545   -0.6169   10.2227 O.3     1  UNL1        0.0000
     86 O           1.5628    7.2599    2.3975 O.3     1  UNL1        0.0000
     87 O           3.8718   -3.7326   11.9889 O.2     1  UNL1        0.0000
     88 O           2.1193   10.9406    1.1409 O.2     1  UNL1        0.0000
     89 O           4.6739   -0.9445   11.9838 O.3     1  UNL1        0.0000
     90 O          -0.1167    9.1049    1.0808 O.2     1  UNL1        0.0000
     91 O           9.4121    6.1301    1.1270 O.2     1  UNL1        0.0000
     92 O          -4.7422    2.1697   11.9148 O.2     1  UNL1        0.0000
     93 O           8.6165    3.3758    1.1564 O.2     1  UNL1        0.0000
     94 O          -2.4740    3.9521   11.9961 O.3     1  UNL1        0.0000
     95 O           4.4842    6.5871    3.0354 O.3     1  UNL1        0.0000
     96 O          -0.2177   -0.4167   10.0165 O.3     1  UNL1        0.0000
     97 O           6.9383    5.3620    0.1026 O.3     1  UNL1        0.0000
     98 O           2.3707    8.4640   -0.0641 O.3     1  UNL1        0.0000
     99 H           3.5694    1.3013    8.3230 H       1  UNL1        0.0000
    100 H          -0.3306   -4.4183    6.8417 H       1  UNL1        0.0000
    101 H           4.4019   10.3290    5.5409 H       1  UNL1        0.0000
    102 H           4.6927    3.0637    6.9223 H       1  UNL1        0.0000
    103 H          -0.2465    3.1533    7.5742 H       1  UNL1        0.0000
    104 H          -3.7908   -1.8774    6.6157 H       1  UNL1        0.0000
    105 H           1.1095    1.3550    8.6131 H       1  UNL1        0.0000
    106 H           0.8825    4.9219    6.1975 H       1  UNL1        0.0000
    107 H           5.4949    8.1417    5.1369 H       1  UNL1        0.0000
    108 H          -8.1260    8.3428    5.6779 H      49  UNL49       0.0000
    109 C           2.8522    4.0982    6.4916 C.ar    1  UNL1        0.0000
    110 C           1.6000    2.1275    8.0219 C.ar    1  UNL1        0.0000
    111 C           6.0583    8.9465    5.6099 C.ar    1  UNL1        0.0000
    112 C          -1.9879   -3.0427    6.7902 C.2     1  UNL1        0.0000
    113 C           1.4574    4.1312    6.6749 C.ar    1  UNL1        0.0000
    114 C           2.9900    2.0965    7.8558 C.ar    1  UNL1        0.0000
    115 C           5.4390   10.1813    5.8381 C.ar    1  UNL1        0.0000
    116 C          -1.3668   -4.2798    6.5408 C.3     1  UNL1        0.0000
    117 C           7.3965    8.7439    5.9665 C.ar    1  UNL1        0.0000
    118 C          -3.3276   -2.8406    6.4124 C.3     1  UNL1        0.0000
    119 C           3.6169    3.0780    7.0848 C.ar    1  UNL1        0.0000
    120 C           0.8337    3.1424    7.4361 C.ar    1  UNL1        0.0000
    121 O           4.7408    4.9681    5.3232 O.3     1  UNL1        0.0000
    122 O          -1.8863   -0.9062    7.8403 O.2     1  UNL1        0.0000
    123 O          -0.0494   -2.2122    7.8979 O.2     1  UNL1        0.0000
    124 O           2.7818    6.0735    5.1751 O.3     1  UNL1        0.0000
    125 N           5.9458   10.4359   25.0870 N.pl3   4  UNL4        0.0000
    126 N           6.4028    9.6470   27.0720 N.pl3   4  UNL4        0.0000
    127 C           6.5896    9.2216   24.9044 C.2     4  UNL4        0.0000
    128 C           6.8773    8.7290   26.1507 C.2     4  UNL4        0.0000
    129 C           7.7022   10.6014   28.9597 C.3     4  UNL4        0.0000
    130 C           5.4743   11.3298   24.0222 C.3     4  UNL4        0.0000
    131 C           5.8344   10.6701   26.4064 C.3     4  UNL4        0.0000
    132 C           6.6209    9.6094   28.5362 C.3     4  UNL4        0.0000
    133 H           6.8092    8.8155   23.9251 H       4  UNL4        0.0000
    134 H           7.3553    7.8044   26.4526 H       4  UNL4        0.0000
    135 H           8.6572   10.3790   28.4670 H       4  UNL4        0.0000
    136 H           6.3224   11.6070   23.3870 H       4  UNL4        0.0000
    137 H           7.4190   11.6347   28.7226 H       4  UNL4        0.0000
    138 H           4.7150   10.7989   23.4358 H       4  UNL4        0.0000
    139 H           7.8496   10.5316   30.0458 H       4  UNL4        0.0000
    140 H           6.9169    8.5802   28.7803 H       4  UNL4        0.0000
    141 H           5.0362   12.2214   24.4813 H       4  UNL4        0.0000
    142 H           5.3563   11.5319   26.8547 H       4  UNL4        0.0000
    143 H           5.6526    9.8052   29.0128 H       4  UNL4        0.0000
    144 N          11.5698   17.7518   26.9257 N.3     5  UNL5        0.0000
    145 C           9.1656   18.1164   25.5993 C.3     5  UNL5        0.0000
    146 C          13.6623   16.2478   26.7842 C.3     5  UNL5        0.0000
    147 O           9.6508   18.8775   28.0474 O.2     5  UNL5        0.0000
    148 O          10.8083   20.0655   26.1238 O.2     5  UNL5        0.0000
    149 O          13.8619   18.8793   26.5311 O.2     5  UNL5        0.0000
    150 O          12.8104   17.6156   24.6408 O.2     5  UNL5        0.0000
    151 F           8.4476   17.1226   26.1886 F       5  UNL5        0.0000
    152 F          13.0490   15.1553   26.2686 F       5  UNL5        0.0000
    153 F           9.7649   17.6045   24.4969 F       5  UNL5        0.0000
    154 F           8.2929   19.0885   25.2045 F       5  UNL5        0.0000
    155 F          13.5696   16.1943   28.1329 F       5  UNL5        0.0000
    156 F          14.9761   16.1918   26.4419 F       5  UNL5        0.0000
    157 S          10.4044   18.8351   26.8090 S.O2    5  UNL5        0.0000
    158 S          12.9323   17.8260   26.0778 S.O2    5  UNL5        0.0000
    159 TI         -7.4901   -4.8367   24.3410 Ti      1  UNL1        0.0000
    160 TI          3.3404   -1.9555   14.9762 Ti      1  UNL1        0.0000
    161 TI         -3.3934   -8.7729   22.5210 Ti      1  UNL1        0.0000
    162 TI         -1.8822    0.3893   16.7480 Ti      1  UNL1        0.0000
    163 TI         -2.8808    2.0676   14.8436 Ti      1  UNL1        0.0000
    164 TI         -1.5052   -9.0272   24.4744 Ti      1  UNL1        0.0000
    165 TI         -6.5409   -6.5726   22.4495 Ti      1  UNL1        0.0000
    166 TI          1.3526   -1.6529   16.8237 Ti      1  UNL1        0.0000
    167 H          -6.9882   -0.9396   24.1216 H       1  UNL1        0.0000
    168 H           4.1492   -5.8615   15.2969 H       1  UNL1        0.0000
    169 H         -11.4500   -5.5933   23.9586 H       1  UNL1        0.0000
    170 H           6.7225    0.0488   15.1769 H       1  UNL1        0.0000
    171 H          -0.5296  -13.0618   24.0885 H       1  UNL1        0.0000
    172 H          -6.9393    1.4777   15.1657 H       1  UNL1        0.0000
    173 H          -2.3863    0.4308   12.9705 H       1  UNL1        0.0000
    174 H           1.4649   -2.1982   13.2763 H       1  UNL1        0.0000
    175 H          -0.9953   -9.6943   18.9633 H       1  UNL1        0.0000
    176 H          -3.6056    2.2263   20.3670 H       1  UNL1        0.0000
    177 H         -10.6135   -3.1839   22.0936 H       1  UNL1        0.0000
    178 H           6.0951   -4.0398   17.2822 H       1  UNL1        0.0000
    179 H          -8.3124   -4.6314   18.7598 H       1  UNL1        0.0000
    180 H          -5.9809    3.8954   17.1969 H       1  UNL1        0.0000
    181 H          -2.4885    5.1704   15.6991 H       1  UNL1        0.0000
    182 H           3.9913   -7.8804   16.4994 H      49  UNL49       0.0000
    183 H           0.2104    0.0694   15.4094 H       1  UNL1        0.0000
    184 H          -4.4741   -6.9245   23.8147 H       1  UNL1        0.0000
    185 H           2.7295   -7.0924   22.8641 H       1  UNL1        0.0000
    186 H           1.2484   -7.5614   23.6114 H       1  UNL1        0.0000
    187 H           3.3037   -2.6587   21.7652 H       1  UNL1        0.0000
    188 H           2.7339   -2.3001   20.1466 H       1  UNL1        0.0000
    189 H           2.2407  -12.0472   22.6740 H       1  UNL1        0.0000
    190 H           0.9616  -10.9466   23.1314 H       1  UNL1        0.0000
    191 C           3.9184   -2.6967   17.8397 C.3     1  UNL1        0.0000
    192 C          -8.4506   -4.5753   21.4940 C.3     1  UNL1        0.0000
    193 C          -0.8129   -9.7836   21.5963 C.3     1  UNL1        0.0000
    194 C          -3.8183    2.3598   17.7074 C.3     1  UNL1        0.0000
    195 C           4.8144   -3.3010   18.8349 C.ar    1  UNL1        0.0000
    196 C          -9.3825   -3.9503   20.5169 C.2     1  UNL1        0.0000
    197 C           0.1273  -10.3979   20.6491 C.2     1  UNL1        0.0000
    198 C          -4.7081    3.0066   18.7071 C.ar    1  UNL1        0.0000
    199 C           4.5657   -3.2261   20.2413 C.ar    1  UNL1        0.0000
    200 C          -9.1661   -4.0703   19.1289 C.3     1  UNL1        0.0000
    201 C           1.2568  -11.1582   21.1022 C.2     1  UNL1        0.0000
    202 C          -5.8029    3.7795   18.2622 C.ar    1  UNL1        0.0000
    203 C          -4.4536    2.8358   20.0620 C.ar    1  UNL1        0.0000
    204 C          -0.1204  -10.2658   19.2652 C.3     1  UNL1        0.0000
    205 C           5.9481   -4.0000   18.3592 C.ar    1  UNL1        0.0000
    206 C         -10.4827   -3.2579   21.0156 C.2     1  UNL1        0.0000
    207 C           4.1302   -5.7824   13.1528 C.2     1  UNL1        0.0000
    208 C          -2.3395    6.0091   13.1778 C.ar    1  UNL1        0.0000
    209 C           6.6146   -0.0193   13.0268 C.ar    1  UNL1        0.0000
    210 C          -6.7437    1.5231   13.0074 C.2     1  UNL1        0.0000
    211 C          -1.1355   -1.9539   18.7126 C.3     1  UNL1        0.0000
    212 C          -5.8916   -9.0483   20.6307 C.2     1  UNL1        0.0000
    213 C           3.9943   -4.3276   13.1296 C.2     1  UNL1        0.0000
    214 C          -2.4323    4.5756   13.1403 C.3     1  UNL1        0.0000
    215 C           5.3168   -0.6362   13.0736 C.3     1  UNL1        0.0000
    216 C          -5.3414    1.9375   13.0319 C.2     1  UNL1        0.0000
    217 C           4.1695   -6.4516   14.3825 C.3     1  UNL1        0.0000
    218 C          -6.9773   -0.3512   25.0354 C.ar    1  UNL1        0.0000
    219 C           7.2699    0.2555   14.2607 C.ar    1  UNL1        0.0000
    220 C         -12.0115   -5.7727   24.8739 C.3     1  UNL1        0.0000
    221 C           2.6743   -6.8170   24.8884 C.ar    1  UNL1        0.0000
    222 C          -7.4409    1.2927   14.2199 C.3     1  UNL1        0.0000
    223 C          -0.4879  -13.5889   25.0375 C.3     1  UNL1        0.0000
    224 C          -2.3258    6.7603   14.4071 C.ar    1  UNL1        0.0000
    225 N          -2.2707    6.1615   15.6452 N.pl3   1  UNL1        0.0000
    226 N           2.0953   -6.9999   23.6494 N.pl3   1  UNL1        0.0000
    227 N           3.4848   -2.5799   20.7726 N.pl3   1  UNL1        0.0000
    228 N           1.5878  -11.3165   22.4196 N.pl3   1  UNL1        0.0000
    229 O           2.7421   -2.2916   18.2055 O.3     1  UNL1        0.0000
    230 O          -7.6816   -5.5262   21.0957 O.3     1  UNL1        0.0000
    231 O          -0.4314   -9.6591   22.8174 O.3     1  UNL1        0.0000
    232 O          -3.8842    2.7894   16.5078 O.3     1  UNL1        0.0000
    233 O          -3.0479    1.4026   18.0938 O.3     1  UNL1        0.0000
    234 O          -1.9833   -9.4151   21.1908 O.3     1  UNL1        0.0000
    235 O           4.3303   -2.6159   16.6280 O.3     1  UNL1        0.0000
    236 O          -8.4926   -4.1390   22.6937 O.3     1  UNL1        0.0000
    237 O           1.6578   -2.8708   15.6290 O.3     1  UNL1        0.0000
    238 O          -5.9884   -5.0122   23.1940 O.3     1  UNL1        0.0000
    239 O           2.5966   -0.5835   16.0789 O.3     1  UNL1        0.0000
    240 O          -7.7406   -6.7369   23.6867 O.3     1  UNL1        0.0000
    241 O          -3.1341   -9.9448   23.7814 O.3     1  UNL1        0.0000
    242 O          -1.3657    1.9506   16.0095 O.3     1  UNL1        0.0000
    243 O          -2.1801   -7.6833   23.3173 O.3     1  UNL1        0.0000
    244 O          -3.0719    0.1935   15.4921 O.3     1  UNL1        0.0000
    245 O          -0.7629  -10.7991   25.0835 O.2     1  UNL1        0.0000
    246 O          -2.5154    3.8742   14.2355 O.3     1  UNL1        0.0000
    247 O           0.0393   -8.0109   25.0784 O.3     1  UNL1        0.0000
    248 O          -4.7513    2.0385   14.1754 O.2     1  UNL1        0.0000
    249 O           4.7775   -0.9363   14.2216 O.3     1  UNL1        0.0000
    250 O          -9.3769   -4.8967   25.0094 O.2     1  UNL1        0.0000
    251 O           3.9819   -3.6907   14.2510 O.2     1  UNL1        0.0000
    252 O          -7.1087   -3.1144   25.0907 O.3     1  UNL1        0.0000
    253 O          -0.1504   -0.4794   16.1300 O.3     1  UNL1        0.0000
    254 O          -4.8524   -7.4832   23.1111 O.3     1  UNL1        0.0000
    255 O           2.3037   -1.7045   13.1972 O.3     1  UNL1        0.0000
    256 O          -2.2640    1.3976   13.0305 O.3     1  UNL1        0.0000
    257 H          -1.0653   -5.7651   21.4176 H       1  UNL1        0.0000
    258 H          -4.9652  -11.4848   19.9363 H       1  UNL1        0.0000
    259 H          -0.2327    3.2626   18.6355 H       1  UNL1        0.0000
    260 H           0.0581   -4.0027   20.0169 H       1  UNL1        0.0000
    261 H          -4.8811   -3.9131   20.6688 H       1  UNL1        0.0000
    262 H          -8.4255   -8.9439   19.7103 H       1  UNL1        0.0000
    263 H          -3.5252   -5.7115   21.7077 H       1  UNL1        0.0000
    264 H          -3.7521   -2.1446   19.2921 H       1  UNL1        0.0000
    265 H           0.8603    1.0753   18.2315 H       1  UNL1        0.0000
    266 H         -12.7607    1.2764   18.7725 H      49  UNL49       0.0000
    267 C          -1.7825   -2.9682   19.5863 C.ar    1  UNL1        0.0000
    268 C          -3.0347   -4.9389   21.1166 C.ar    1  UNL1        0.0000
    269 C           1.4236    1.8801   18.7045 C.ar    1  UNL1        0.0000
    270 C          -6.6225  -10.1091   19.8848 C.2     1  UNL1        0.0000
    271 C          -3.1773   -2.9353   19.7695 C.ar    1  UNL1        0.0000
    272 C          -1.6446   -4.9699   20.9504 C.ar    1  UNL1        0.0000
    273 C           0.8044    3.1148   18.9327 C.ar    1  UNL1        0.0000
    274 C          -6.0015  -11.3462   19.6354 C.3     1  UNL1        0.0000
    275 C           2.7619    1.6775   19.0611 C.ar    1  UNL1        0.0000
    276 C          -7.9623   -9.9070   19.5070 C.3     1  UNL1        0.0000
    277 C          -1.0177   -3.9884   20.1794 C.ar    1  UNL1        0.0000
    278 C          -3.8010   -3.9241   20.5307 C.ar    1  UNL1        0.0000
    279 O           0.1062   -2.0983   18.4178 O.3     1  UNL1        0.0000
    280 O          -6.5209   -7.9727   20.9349 O.2     1  UNL1        0.0000
    281 O          -4.6841   -9.2786   20.9925 O.2     1  UNL1        0.0000
    282 O          -1.8529   -0.9929   18.2697 O.3     1  UNL1        0.0000
    283 N           1.3111    3.3695   38.1816 N.pl3   8  UNL8        0.0000
    284 N           1.7682    2.5806   40.1666 N.pl3   8  UNL8        0.0000
    285 C           1.9550    2.1551   37.9990 C.2     8  UNL8        0.0000
    286 C           2.2427    1.6626   39.2453 C.2     8  UNL8        0.0000
    287 C           3.0675    3.5349   42.0543 C.3     8  UNL8        0.0000
    288 C           0.8396    4.2633   37.1168 C.3     8  UNL8        0.0000
    289 C           1.1998    3.6037   39.5010 C.3     8  UNL8        0.0000
    290 C           1.9863    2.5429   41.6308 C.3     8  UNL8        0.0000
    291 H           2.1746    1.7491   37.0197 H       8  UNL8        0.0000
    292 H           2.7207    0.7380   39.5472 H       8  UNL8        0.0000
    293 H           4.0225    3.3125   41.5616 H       8  UNL8        0.0000
    294 H           1.6877    4.5405   36.4816 H       8  UNL8        0.0000
    295 H           2.7844    4.5683   41.8172 H       8  UNL8        0.0000
    296 H           0.0803    3.7324   36.5304 H       8  UNL8        0.0000
    297 H           3.2150    3.4652   43.1404 H       8  UNL8        0.0000
    298 H           2.2822    1.5137   41.8749 H       8  UNL8        0.0000
    299 H           0.4015    5.1549   37.5759 H       8  UNL8        0.0000
    300 H           0.7217    4.4655   39.9493 H       8  UNL8        0.0000
    301 H           1.0179    2.7387   42.1074 H       8  UNL8        0.0000
    302 N           6.9351   10.6854   40.0203 N.3     9  UNL9        0.0000
    303 C           4.5310   11.0499   38.6939 C.3     9  UNL9        0.0000
    304 C           9.0277    9.1813   39.8788 C.3     9  UNL9        0.0000
    305 O           5.0162   11.8111   41.1420 O.2     9  UNL9        0.0000
    306 O           6.1736   12.9990   39.2184 O.2     9  UNL9        0.0000
    307 O           9.2273   11.8129   39.6257 O.2     9  UNL9        0.0000
    308 O           8.1758   10.5492   37.7354 O.2     9  UNL9        0.0000
    309 F           3.8130   10.0562   39.2832 F       9  UNL9        0.0000
    310 F           8.4144    8.0889   39.3632 F       9  UNL9        0.0000
    311 F           5.1303   10.5381   37.5915 F       9  UNL9        0.0000
    312 F           3.6583   12.0220   38.2991 F       9  UNL9        0.0000
    313 F           8.9349    9.1279   41.2275 F       9  UNL9        0.0000
    314 F          10.3415    9.1254   39.5365 F       9  UNL9        0.0000
    315 S           5.7698   11.7686   39.9036 S.O2    9  UNL9        0.0000
    316 S           8.2977   10.7596   39.1724 S.O2    9  UNL9        0.0000
    317 TI        -12.1247  -11.9031   37.4356 Ti     10  UNL10       0.0000
    318 TI         -1.2943   -9.0219   28.0708 Ti      1  UNL1        0.0000
    319 TI         -8.0280  -15.8393   35.6156 Ti     10  UNL10       0.0000
    320 TI         -6.5169   -6.6772   29.8426 Ti      1  UNL1        0.0000
    321 TI         -7.5154   -4.9989   27.9382 Ti      1  UNL1        0.0000
    322 TI         -6.1398  -16.0937   37.5690 Ti     10  UNL10       0.0000
    323 TI        -11.1755  -13.6390   35.5441 Ti     10  UNL10       0.0000
    324 TI         -3.2821   -8.7193   29.9183 Ti      1  UNL1        0.0000
    325 H         -11.6229   -8.0060   37.2162 H       1  UNL1        0.0000
    326 H          -0.4855  -12.9279   28.3915 H       1  UNL1        0.0000
    327 H         -16.0846  -12.6597   37.0532 H       2  UNL2        0.0000
    328 H           2.0879   -7.0176   28.2715 H       1  UNL1        0.0000
    329 H          -5.1642  -20.1282   37.1831 H       4  UNL4        0.0000
    330 H         -11.5740   -5.5888   28.2603 H       1  UNL1        0.0000
    331 H          -7.0210   -6.6357   26.0651 H       1  UNL1        0.0000
    332 H          -3.1698   -9.2646   26.3709 H       1  UNL1        0.0000
    333 H          -5.6299  -16.7608   32.0579 H      10  UNL10       0.0000
    334 H          -8.2403   -4.8402   33.4616 H       1  UNL1        0.0000
    335 H         -15.2481  -10.2504   35.1882 H      10  UNL10       0.0000
    336 H           1.4605  -11.1062   30.3768 H       1  UNL1        0.0000
    337 H         -12.9470  -11.6978   31.8544 H      10  UNL10       0.0000
    338 H         -10.6155   -3.1710   30.2915 H       1  UNL1        0.0000
    339 H          -7.1232   -1.8960   28.7937 H       1  UNL1        0.0000
    340 H          -0.6433  -14.9468   29.5940 H      49  UNL49       0.0000
    341 H          -4.4242   -6.9970   28.5040 H       1  UNL1        0.0000
    342 H          -9.1087  -13.9909   36.9093 H      10  UNL10       0.0000
    343 H          -1.9051  -14.1588   35.9587 H       3  UNL3        0.0000
    344 H          -3.3862  -14.6279   36.7060 H       3  UNL3        0.0000
    345 H          -1.3310   -9.7252   34.8598 H       1  UNL1        0.0000
    346 H          -1.9007   -9.3666   33.2412 H       1  UNL1        0.0000
    347 H          -2.3939  -19.1136   35.7686 H      10  UNL10       0.0000
    348 H          -3.6731  -18.0130   36.2260 H      10  UNL10       0.0000
    349 C          -0.7162   -9.7631   30.9343 C.3     1  UNL1        0.0000
    350 C         -13.0853  -11.6417   34.5886 C.3    10  UNL10       0.0000
    351 C          -5.4475  -16.8500   34.6909 C.3    10  UNL10       0.0000
    352 C          -8.4530   -4.7067   30.8020 C.3     1  UNL1        0.0000
    353 C           0.1798  -10.3674   31.9295 C.ar    1  UNL1        0.0000
    354 C         -14.0172  -11.0167   33.6115 C.2    10  UNL10       0.0000
    355 C          -4.5073  -17.4644   33.7437 C.2    10  UNL10       0.0000
    356 C          -9.3428   -4.0599   31.8018 C.ar    1  UNL1        0.0000
    357 C          -0.0690  -10.2925   33.3359 C.ar    1  UNL1        0.0000
    358 C         -13.8008  -11.1367   32.2235 C.3    10  UNL10       0.0000
    359 C          -3.3779  -18.2247   34.1968 C.2    10  UNL10       0.0000
    360 C         -10.4375   -3.2869   31.3568 C.ar    1  UNL1        0.0000
    361 C          -9.0883   -4.2306   33.1566 C.ar    1  UNL1        0.0000
    362 C          -4.7551  -17.3322   32.3598 C.3    10  UNL10       0.0000
    363 C           1.3135  -11.0664   31.4538 C.ar    1  UNL1        0.0000
    364 C         -15.1173  -10.3243   34.1102 C.2    10  UNL10       0.0000
    365 C          -0.5044  -12.8489   26.2474 C.2     1  UNL1        0.0000
    366 C          -6.9742   -1.0573   26.2724 C.ar    1  UNL1        0.0000
    367 C           1.9800   -7.0858   26.1214 C.ar    1  UNL1        0.0000
    368 C         -11.3783   -5.5433   26.1020 C.2     1  UNL1        0.0000
    369 C          -5.7701   -9.0204   31.8072 C.3     1  UNL1        0.0000
    370 C         -10.5262  -16.1147   33.7253 C.2    10  UNL10       0.0000
    371 C          -0.6403  -11.3940   26.2242 C.2     1  UNL1        0.0000
    372 C          -7.0669   -2.4908   26.2349 C.3     1  UNL1        0.0000
    373 C           0.6822   -7.7026   26.1683 C.3     1  UNL1        0.0000
    374 C          -9.9760   -5.1290   26.1265 C.2     1  UNL1        0.0000
    375 C          -0.4651  -13.5180   27.4771 C.3     1  UNL1        0.0000
    376 C         -11.6119   -7.4176   38.1301 C.2     1  UNL1        0.0000
    377 C           2.6353   -6.8110   27.3554 C.ar    1  UNL1        0.0000
    378 C         -16.6461  -12.8391   37.9685 C.3    12  UNL12       0.0000
    379 C          -1.9604  -13.8835   37.9830 C.2     3  UNL3        0.0000
    380 C         -12.0755   -5.7737   27.3145 C.3     1  UNL1        0.0000
    381 C          -5.1226  -20.6554   38.1321 C.3    13  UNL13       0.0000
    382 C          -6.9604   -0.3061   27.5017 C.ar    1  UNL1        0.0000
    383 N          -6.9053   -0.9049   28.7398 N.pl3   1  UNL1        0.0000
    384 N          -2.5394  -14.0663   36.7440 N.pl3   3  UNL3        0.0000
    385 N          -1.1498   -9.6463   33.8672 N.pl3   1  UNL1        0.0000
    386 N          -3.0469  -18.3829   35.5142 N.pl3  10  UNL10       0.0000
    387 O          -1.8925   -9.3580   31.3001 O.3     1  UNL1        0.0000
    388 O         -12.3163  -12.5926   34.1903 O.3    10  UNL10       0.0000
    389 O          -5.0661  -16.7255   35.9120 O.3    10  UNL10       0.0000
    390 O          -8.5188   -4.2770   29.6024 O.3     1  UNL1        0.0000
    391 O          -7.6825   -5.6639   31.1884 O.3     1  UNL1        0.0000
    392 O          -6.6180  -16.4816   34.2854 O.3    10  UNL10       0.0000
    393 O          -0.3043   -9.6824   29.7226 O.3     1  UNL1        0.0000
    394 O         -13.1273  -11.2055   35.7883 O.3    10  UNL10       0.0000
    395 O          -2.9769   -9.9373   28.7236 O.3     1  UNL1        0.0000
    396 O         -10.6231  -12.0786   36.2887 O.3    10  UNL10       0.0000
    397 O          -2.0381   -7.6500   29.1736 O.3     1  UNL1        0.0000
    398 O         -12.3753  -13.8033   36.7813 O.3    10  UNL10       0.0000
    399 O          -7.7687  -17.0113   36.8761 O.3    10  UNL10       0.0000
    400 O          -6.0003   -5.1159   29.1041 O.3     1  UNL1        0.0000
    401 O          -6.8148  -14.7498   36.4119 O.3    10  UNL10       0.0000
    402 O          -7.7065   -6.8730   28.5867 O.3     1  UNL1        0.0000
    403 O          -5.3975  -17.8655   38.1781 O.3    10  UNL10       0.0000
    404 O          -7.1500   -3.1922   27.3301 O.3     1  UNL1        0.0000
    405 O          -4.5954  -15.0773   38.1730 O.3    10  UNL10       0.0000
    406 O          -9.3860   -5.0280   27.2700 O.2     1  UNL1        0.0000
    407 O           0.1428   -8.0028   27.3162 O.3     1  UNL1        0.0000
    408 O         -14.0115  -11.9632   38.1041 O.3    10  UNL10       0.0000
    409 O          -0.6527  -10.7571   27.3456 O.2     1  UNL1        0.0000
    410 O         -11.7433  -10.1808   38.1853 O.3    10  UNL10       0.0000
    411 O          -4.7851   -7.5458   29.2246 O.3     1  UNL1        0.0000
    412 O          -9.4870  -14.5496   36.2057 O.3    10  UNL10       0.0000
    413 O          -2.3310   -8.7709   26.2918 O.3     1  UNL1        0.0000
    414 O          -6.8986   -5.6689   26.1251 O.3     1  UNL1        0.0000
    415 H          -5.6999  -12.8315   34.5122 H       1  UNL1        0.0000
    416 H          -9.5999  -18.5512   33.0309 H      10  UNL10       0.0000
    417 H          -4.8674   -3.8039   31.7301 H       1  UNL1        0.0000
    418 H          -4.5766  -11.0691   33.1116 H       1  UNL1        0.0000
    419 H          -9.5158  -10.9795   33.7634 H       1  UNL1        0.0000
    420 H         -13.0601  -16.0103   32.8049 H      10  UNL10       0.0000
    421 H          -8.1598  -12.7779   34.8023 H       1  UNL1        0.0000
    422 H          -8.3868   -9.2110   32.3867 H       1  UNL1        0.0000
    423 H          -3.7744   -5.9911   31.3261 H       1  UNL1        0.0000
    424 H         -17.3953   -5.7901   31.8671 H      49  UNL49       0.0000
    425 C          -6.4171  -10.0347   32.6809 C.ar    1  UNL1        0.0000
    426 C          -7.6693  -12.0054   34.2112 C.ar    1  UNL1        0.0000
    427 C          -3.2110   -5.1864   31.7991 C.ar    1  UNL1        0.0000
    428 C         -11.2572  -17.1755   32.9794 C.2    10  UNL10       0.0000
    429 C          -7.8119  -10.0017   32.8641 C.ar    1  UNL1        0.0000
    430 C          -6.2793  -12.0363   34.0450 C.ar    1  UNL1        0.0000
    431 C          -3.8303   -3.9516   32.0273 C.ar    1  UNL1        0.0000
    432 C         -10.6361  -18.4126   32.7300 C.3    10  UNL10       0.0000
    433 C          -1.8728   -5.3890   32.1558 C.ar    1  UNL1        0.0000
    434 C         -12.5969  -16.9735   32.6016 C.3    10  UNL10       0.0000
    435 C          -5.6524  -11.0548   33.2740 C.ar    1  UNL1        0.0000
    436 C          -8.4356  -10.9905   33.6253 C.ar    1  UNL1        0.0000
    437 O          -4.5285   -9.1648   31.5125 O.3     1  UNL1        0.0000
    438 O         -11.1556  -15.0391   34.0295 O.2    10  UNL10       0.0000
    439 O          -9.3187  -16.3451   34.0871 O.2    10  UNL10       0.0000
    440 O          -6.4875   -8.0593   31.3643 O.3     1  UNL1        0.0000
    441 N          -3.3235   -3.6970   51.2762 N.pl3  15  UNL15       0.0000
    442 N          -2.8665   -4.4859   53.2612 N.pl3  15  UNL15       0.0000
    443 C          -2.6797   -4.9113   51.0936 C.2    15  UNL15       0.0000
    444 C          -2.3920   -5.4039   52.3399 C.2    15  UNL15       0.0000
    445 C          -1.5671   -3.5315   55.1489 C.3    15  UNL15       0.0000
    446 C          -3.7950   -2.8031   50.2114 C.3    15  UNL15       0.0000
    447 C          -3.4349   -3.4627   52.5956 C.3    15  UNL15       0.0000
    448 C          -2.6484   -4.5235   54.7254 C.3    15  UNL15       0.0000
    449 H          -2.4601   -5.3174   50.1143 H      15  UNL15       0.0000
    450 H          -1.9140   -6.3285   52.6418 H      15  UNL15       0.0000
    451 H          -0.6121   -3.7539   54.6562 H      15  UNL15       0.0000
    452 H          -2.9469   -2.5259   49.5762 H      15  UNL15       0.0000
    453 H          -1.8503   -2.4981   54.9118 H      15  UNL15       0.0000
    454 H          -4.5543   -3.3340   49.6250 H      15  UNL15       0.0000
    455 H          -1.4197   -3.6012   56.2351 H      15  UNL15       0.0000
    456 H          -2.3524   -5.5527   54.9695 H      15  UNL15       0.0000
    457 H          -4.2331   -1.9115   50.6705 H      15  UNL15       0.0000
    458 H          -3.9130   -2.6009   53.0439 H      15  UNL15       0.0000
    459 H          -3.6167   -4.3277   55.2020 H      15  UNL15       0.0000
    460 N           2.3005    3.6189   53.1149 N.3    16  UNL16       0.0000
    461 C          -0.1037    3.9835   51.7885 C.3    16  UNL16       0.0000
    462 C           4.3930    2.1149   52.9735 C.3    16  UNL16       0.0000
    463 O           0.3815    4.7447   54.2366 O.2    16  UNL16       0.0000
    464 O           1.5390    5.9326   52.3130 O.2    16  UNL16       0.0000
    465 O           4.5926    4.7464   52.7203 O.2    16  UNL16       0.0000
    466 O           3.5411    3.4828   50.8300 O.2    16  UNL16       0.0000
    467 F          -0.8217    2.9898   52.3778 F      16  UNL16       0.0000
    468 F           3.7797    1.0224   52.4578 F      16  UNL16       0.0000
    469 F           0.4956    3.4717   50.6861 F      16  UNL16       0.0000
    470 F          -0.9764    4.9556   51.3938 F      16  UNL16       0.0000
    471 F           4.3003    2.0614   54.3222 F      16  UNL16       0.0000
    472 F           5.7068    2.0590   52.6311 F      16  UNL16       0.0000
    473 S           1.1351    4.7022   52.9982 S.O2   16  UNL16       0.0000
    474 S           3.6631    3.6931   52.2670 S.O2   16  UNL16       0.0000
    475 TI         -9.3725   16.8423   11.1899 Ti      1  UNL1        0.0000
    476 TI          1.4580   19.7235    1.8251 Ti      1  UNL1        0.0000
    477 TI         -5.2758   12.9061    9.3699 Ti      1  UNL1        0.0000
    478 TI         -3.7646   22.0682    3.5969 Ti      1  UNL1        0.0000
    479 TI         -4.7632   23.7465    1.6925 Ti      1  UNL1        0.0000
    480 TI         -3.3876   12.6517   11.3233 Ti      1  UNL1        0.0000
    481 TI         -8.4233   15.1064    9.2984 Ti      1  UNL1        0.0000
    482 TI         -0.5298   20.0260    3.6725 Ti      1  UNL1        0.0000
    483 H          -8.8706   20.7394   10.9704 H       1  UNL1        0.0000
    484 H           2.2668   15.8174    2.1458 H       1  UNL1        0.0000
    485 H         -13.3324   16.0856   10.8074 H       1  UNL1        0.0000
    486 H           4.8402   21.7278    2.0257 H       1  UNL1        0.0000
    487 H          -2.4120    8.6172   10.9373 H       1  UNL1        0.0000
    488 H          -8.8217   23.1566    2.0145 H       1  UNL1        0.0000
    489 H          -4.2687   22.1097   -0.1806 H       1  UNL1        0.0000
    490 H          -0.4175   19.4808    0.1251 H       1  UNL1        0.0000
    491 H          -2.8777   11.9846    5.8122 H       1  UNL1        0.0000
    492 H          -5.4880   23.9052    7.2158 H       1  UNL1        0.0000
    493 H         -12.4959   18.4950    8.9425 H       1  UNL1        0.0000
    494 H           4.2128   17.6392    4.1311 H       1  UNL1        0.0000
    495 H         -10.1948   17.0476    5.6087 H       1  UNL1        0.0000
    496 H          -7.8632   25.5744    4.0457 H       1  UNL1        0.0000
    497 H          -4.3709   26.8494    2.5479 H       1  UNL1        0.0000
    498 H           2.1090   13.7986    3.3482 H       1  UNL1        0.0000
    499 H          -1.6720   21.7483    2.2582 H       1  UNL1        0.0000
    500 H          -6.3565   14.7545   10.6635 H       1  UNL1        0.0000
    501 H           0.8472   14.5866    9.7129 H       1  UNL1        0.0000
    502 H          -0.6340   14.1175   10.4603 H       1  UNL1        0.0000
    503 H           1.4213   19.0202    8.6140 H       1  UNL1        0.0000
    504 H           0.8516   19.3788    6.9955 H       1  UNL1        0.0000
    505 H           0.3584    9.6318    9.5229 H       1  UNL1        0.0000
    506 H          -0.9208   10.7323    9.9803 H       1  UNL1        0.0000
    507 C           2.0360   18.9822    4.6886 C.3     1  UNL1        0.0000
    508 C         -10.3330   17.1037    8.3428 C.3     1  UNL1        0.0000
    509 C          -2.6953   11.8954    8.4452 C.3     1  UNL1        0.0000
    510 C          -5.7007   24.0387    4.5562 C.3     1  UNL1        0.0000
    511 C           2.9321   18.3779    5.6838 C.ar    1  UNL1        0.0000
    512 C         -11.2649   17.7287    7.3658 C.2     1  UNL1        0.0000
    513 C          -1.7551   11.2810    7.4980 C.ar    1  UNL1        0.0000
    514 C          -6.5905   24.6855    5.5560 C.ar    1  UNL1        0.0000
    515 C           2.6833   18.4528    7.0902 C.ar    1  UNL1        0.0000
    516 C         -11.0485   17.6087    5.9778 C.3     1  UNL1        0.0000
    517 C          -0.6256   10.5207    7.9511 C.ar    1  UNL1        0.0000
    518 C          -7.6853   25.4585    5.1111 C.ar    1  UNL1        0.0000
    519 C          -6.3360   24.5148    6.9109 C.ar    1  UNL1        0.0000
    520 C          -2.0028   11.4132    6.1141 C.ar    1  UNL1        0.0000
    521 C           4.0657   17.6789    5.2081 C.ar    1  UNL1        0.0000
    522 C         -12.3651   18.4211    7.8645 C.2     1  UNL1        0.0000
    523 C           2.2478   15.8965    0.0017 C.2     1  UNL1        0.0000
    524 C          -4.2219   27.6881    0.0267 C.2     1  UNL1        0.0000
    525 C           4.7323   21.6596   -0.1243 C.2     1  UNL1        0.0000
    526 C          -8.6261   23.2021   -0.1437 C.2     1  UNL1        0.0000
    527 C          -3.0179   19.7250    5.5615 C.3     1  UNL1        0.0000
    528 C          -7.7740   12.6307    7.4796 C.2     1  UNL1        0.0000
    529 C           2.1120   17.3514   -0.0215 C.2     1  UNL1        0.0000
    530 C          -4.3147   26.2546   -0.0108 C.2     1  UNL1        0.0000
    531 C           3.4344   21.0428   -0.0775 C.2     1  UNL1        0.0000
    532 C          -7.2238   23.6164   -0.1193 C.2     1  UNL1        0.0000
    533 C           2.2872   15.2274    1.2313 C.2     1  UNL1        0.0000
    534 C          -8.8597   21.3278   11.8843 C.ar    1  UNL1        0.0000
    535 C           5.3876   21.9344    1.1096 C.2     1  UNL1        0.0000
    536 C         -13.8939   15.9063   11.7228 C.3     1  UNL1        0.0000
    537 C           0.7919   14.8619   11.7373 C.ar    1  UNL1        0.0000
    538 C          -9.3233   22.9716    1.0687 C.3     1  UNL1        0.0000
    539 C          -2.3703    8.0900   11.8864 C.ar    1  UNL1        0.0000
    540 C          -4.2081   28.4393    1.2559 C.2     1  UNL1        0.0000
    541 N          -4.1531   27.8404    2.4941 N.pl3   1  UNL1        0.0000
    542 N           0.2129   14.6791   10.4983 N.pl3   1  UNL1        0.0000
    543 N           1.6024   19.0991    7.6215 N.pl3   1  UNL1        0.0000
    544 N          -0.2946   10.3625    9.2684 N.pl3   1  UNL1        0.0000
    545 O           0.8597   19.3873    5.0544 O.3     1  UNL1        0.0000
    546 O          -9.5640   16.1528    7.9446 O.3     1  UNL1        0.0000
    547 O          -2.3138   12.0199    9.6663 O.3     1  UNL1        0.0000
    548 O          -5.7666   24.4684    3.3566 O.3     1  UNL1        0.0000
    549 O          -4.9302   23.0815    4.9427 O.3     1  UNL1        0.0000
    550 O          -3.8657   12.2638    8.0397 O.3     1  UNL1        0.0000
    551 O           2.4479   19.0630    3.4769 O.3     1  UNL1        0.0000
    552 O         -10.3750   17.5399    9.5426 O.3     1  UNL1        0.0000
    553 O          -0.2246   18.8081    2.4778 O.3     1  UNL1        0.0000
    554 O          -7.8708   16.6667   10.0429 O.3     1  UNL1        0.0000
    555 O           0.7142   21.0954    2.9278 O.3     1  UNL1        0.0000
    556 O          -9.6230   14.9421   10.5356 O.3     1  UNL1        0.0000
    557 O          -5.0165   11.7341   10.6303 O.3     1  UNL1        0.0000
    558 O          -3.2480   23.6295    2.8584 O.3     1  UNL1        0.0000
    559 O          -4.0625   13.9956   10.1661 O.3     1  UNL1        0.0000
    560 O          -4.9543   21.8724    2.3410 O.3     1  UNL1        0.0000
    561 O          -2.6453   10.8799   11.9324 O.3     1  UNL1        0.0000
    562 O          -4.3978   25.5531    1.0844 O.2     1  UNL1        0.0000
    563 O          -1.8431   13.6681   11.9272 O.3     1  UNL1        0.0000
    564 O          -6.6337   23.7174    1.0243 O.2     1  UNL1        0.0000
    565 O           2.8951   20.7426    1.0705 O.2     1  UNL1        0.0000
    566 O         -11.2593   16.7822   11.8583 O.2     1  UNL1        0.0000
    567 O           2.0995   17.9883    1.0999 O.2     1  UNL1        0.0000
    568 O          -8.9911   18.5646   11.9396 O.3     1  UNL1        0.0000
    569 O          -2.0328   21.1996    2.9789 O.3     1  UNL1        0.0000
    570 O          -6.7347   14.1958    9.9599 O.3     1  UNL1        0.0000
    571 O           0.4213   19.9745    0.0461 O.3     1  UNL1        0.0000
    572 O          -4.1463   23.0765   -0.1206 O.3     1  UNL1        0.0000
    573 H          -2.9477   15.9139    8.2665 H       1  UNL1        0.0000
    574 H          -6.8476   10.1942    6.7851 H       1  UNL1        0.0000
    575 H          -2.1151   24.9415    5.4843 H       1  UNL1        0.0000
    576 H          -1.8243   17.6763    6.8658 H       1  UNL1        0.0000
    577 H          -6.7635   17.7658    7.5176 H       1  UNL1        0.0000
    578 H         -10.3079   12.7351    6.5592 H       1  UNL1        0.0000
    579 H          -5.4076   15.9675    8.5565 H       1  UNL1        0.0000
    580 H          -5.6345   19.5344    6.1409 H       1  UNL1        0.0000
    581 H          -1.0221   22.7542    5.0804 H       1  UNL1        0.0000
    582 H         -14.6431   22.9553    5.6213 H      49  UNL49       0.0000
    583 C          -3.6649   18.7107    6.4351 C.ar    1  UNL1        0.0000
    584 C          -4.9170   16.7400    7.9654 C.ar    1  UNL1        0.0000
    585 C          -0.4588   23.5590    5.5534 C.ar    1  UNL1        0.0000
    586 C          -8.5049   11.5699    6.7336 C.2     1  UNL1        0.0000
    587 C          -5.0597   18.7437    6.6184 C.ar    1  UNL1        0.0000
    588 C          -3.5270   16.7090    7.7992 C.ar    1  UNL1        0.0000
    589 C          -1.0780   24.7938    5.7816 C.ar    1  UNL1        0.0000
    590 C          -7.8839   10.3328    6.4843 C.3     1  UNL1        0.0000
    591 C           0.8795   23.3564    5.9100 C.ar    1  UNL1        0.0000
    592 C          -9.8446   11.7719    6.3558 C.3     1  UNL1        0.0000
    593 C          -2.9001   17.6905    7.0283 C.ar    1  UNL1        0.0000
    594 C          -5.6833   17.7549    7.3795 C.ar    1  UNL1        0.0000
    595 O          -1.7762   19.5806    5.2667 O.3     1  UNL1        0.0000
    596 O          -8.4033   13.7063    7.7837 O.2     1  UNL1        0.0000
    597 O          -6.5664   12.4003    7.8414 O.2     1  UNL1        0.0000
    598 O          -3.7353   20.6861    5.1186 O.3     1  UNL1        0.0000
    599 N          -0.5713   25.0484   25.0305 N.pl3  18  UNL18       0.0000
    600 N          -0.1142   24.2595   27.0155 N.pl3  18  UNL18       0.0000
    601 C           0.0726   23.8341   24.8479 C.2    18  UNL18       0.0000
    602 C           0.3603   23.3415   26.0942 C.2    18  UNL18       0.0000
    603 C           1.1851   25.2139   28.9032 C.3    18  UNL18       0.0000
    604 C          -1.0427   25.9423   23.9657 C.3    18  UNL18       0.0000
    605 C          -0.6826   25.2826   26.3499 C.3    18  UNL18       0.0000
    606 C           0.1039   24.2219   28.4796 C.3    18  UNL18       0.0000
    607 H           0.2922   23.4280   23.8686 H      18  UNL18       0.0000
    608 H           0.8383   22.4169   26.3961 H      18  UNL18       0.0000
    609 H           2.1402   24.9915   28.4105 H      18  UNL18       0.0000
    610 H          -0.1947   26.2195   23.3305 H      18  UNL18       0.0000
    611 H           0.9020   26.2473   28.6661 H      18  UNL18       0.0000
    612 H          -1.8021   25.4114   23.3793 H      18  UNL18       0.0000
    613 H           1.3326   25.1442   29.9893 H      18  UNL18       0.0000
    614 H           0.3999   23.1927   28.7238 H      18  UNL18       0.0000
    615 H          -1.4809   26.8339   24.4247 H      18  UNL18       0.0000
    616 H          -1.1607   26.1444   26.7981 H      18  UNL18       0.0000
    617 H          -0.8645   24.4177   28.9562 H      18  UNL18       0.0000
    618 N           5.0527   32.3643   26.8692 N.3    19  UNL19       0.0000
    619 C           2.6486   32.7289   25.5428 C.3    19  UNL19       0.0000
    620 C           7.1453   30.8603   26.7277 C.3    19  UNL19       0.0000
    621 O           3.1338   33.4901   27.9909 O.2    19  UNL19       0.0000
    622 O           4.2912   34.6780   26.0672 O.2    19  UNL19       0.0000
    623 O           7.3449   33.4918   26.4746 O.2    19  UNL19       0.0000
    624 O           6.2934   32.2282   24.5843 O.2    19  UNL19       0.0000
    625 F           1.9306   31.7351   26.1321 F      19  UNL19       0.0000
    626 F           6.5320   29.7678   26.2121 F      19  UNL19       0.0000
    627 F           3.2479   32.2171   24.4403 F      19  UNL19       0.0000
    628 F           1.7759   33.7010   25.1480 F      19  UNL19       0.0000
    629 F           7.0525   30.8068   28.0764 F      19  UNL19       0.0000
    630 F           8.4591   30.8043   26.3854 F      19  UNL19       0.0000
    631 S           3.8874   33.4476   26.7525 S.O2   19  UNL19       0.0000
    632 S           6.4153   32.4385   26.0213 S.O2   19  UNL19       0.0000
    633 TI        -14.0071    9.7758   24.2845 Ti      1  UNL1        0.0000
    634 TI         -3.1766   12.6570   14.9197 Ti      1  UNL1        0.0000
    635 TI         -9.9104    5.8396   22.4645 Ti      1  UNL1        0.0000
    636 TI         -8.3992   15.0018   16.6915 Ti      1  UNL1        0.0000
    637 TI         -9.3978   16.6801   14.7871 Ti      1  UNL1        0.0000
    638 TI         -8.0222    5.5853   24.4179 Ti      1  UNL1        0.0000
    639 TI        -13.0579    8.0399   22.3930 Ti      1  UNL1        0.0000
    640 TI         -5.1645   12.9596   16.7671 Ti      1  UNL1        0.0000
    641 H         -13.5052   13.6729   24.0650 H       1  UNL1        0.0000
    642 H          -2.3679    8.7510   15.2404 H       1  UNL1        0.0000
    643 H         -17.9670    9.0192   23.9020 H       1  UNL1        0.0000
    644 H           0.2055   14.6613   15.1203 H       1  UNL1        0.0000
    645 H          -7.0466    1.5508   24.0320 H       1  UNL1        0.0000
    646 H         -13.4563   16.0902   15.1091 H       1  UNL1        0.0000
    647 H          -8.9034   15.0433   12.9140 H       1  UNL1        0.0000
    648 H          -5.0522   12.4144   13.2197 H       1  UNL1        0.0000
    649 H          -7.5123    4.9182   18.9068 H       1  UNL1        0.0000
    650 H         -10.1227   16.8388   20.3104 H       1  UNL1        0.0000
    651 H         -17.1305   11.4286   22.0371 H       1  UNL1        0.0000
    652 H          -0.4219   10.5727   17.2257 H       1  UNL1        0.0000
    653 H         -14.8294    9.9811   18.7033 H       1  UNL1        0.0000
    654 H         -12.4979   18.5079   17.1403 H       1  UNL1        0.0000
    655 H          -9.0056   19.7829   15.6426 H       1  UNL1        0.0000
    656 H          -2.5257    6.7322   16.4429 H       1  UNL1        0.0000
    657 H          -6.3066   14.6819   15.3528 H       1  UNL1        0.0000
    658 H         -10.9911    7.6880   23.7581 H       1  UNL1        0.0000
    659 H          -3.7875    7.5201   22.8075 H       1  UNL1        0.0000
    660 H          -5.2686    7.0511   23.5549 H       1  UNL1        0.0000
    661 H          -3.2134   11.9538   21.7086 H       1  UNL1        0.0000
    662 H          -3.7831   12.3124   20.0901 H       1  UNL1        0.0000
    663 H          -4.2763    2.5653   22.6175 H       1  UNL1        0.0000
    664 H          -5.5554    3.6659   23.0749 H       1  UNL1        0.0000
    665 C          -2.5986   11.9158   17.7832 C.3     1  UNL1        0.0000
    666 C         -14.9677   10.0372   21.4375 C.3     1  UNL1        0.0000
    667 C          -7.3299    4.8289   21.5398 C.3     1  UNL1        0.0000
    668 C         -10.3354   16.9723   17.6508 C.3     1  UNL1        0.0000
    669 C          -1.7026   11.3115   18.7784 C.ar    1  UNL1        0.0000
    670 C         -15.8996   10.6622   20.4604 C.2     1  UNL1        0.0000
    671 C          -6.3897    4.2146   20.5926 C.ar    1  UNL1        0.0000
    672 C         -11.2252   17.6191   18.6506 C.ar    1  UNL1        0.0000
    673 C          -1.9513   11.3864   20.1848 C.ar    1  UNL1        0.0000
    674 C         -15.6832   10.5423   19.0724 C.3     1  UNL1        0.0000
    675 C          -5.2603    3.4543   21.0457 C.ar    1  UNL1        0.0000
    676 C         -12.3199   18.3920   18.2057 C.ar    1  UNL1        0.0000
    677 C         -10.9707   17.4483   20.0055 C.ar    1  UNL1        0.0000
    678 C          -6.6374    4.3467   19.2087 C.ar    1  UNL1        0.0000
    679 C          -0.5689   10.6125   18.3027 C.ar    1  UNL1        0.0000
    680 C         -16.9997   11.3547   20.9591 C.2     1  UNL1        0.0000
    681 C          -2.3868    8.8301   13.0963 C.ar    1  UNL1        0.0000
    682 C          -8.8566   20.6217   13.1213 C.ar    1  UNL1        0.0000
    683 C           0.0976   14.5932   12.9703 C.ar    1  UNL1        0.0000
    684 C         -13.2607   16.1356   12.9509 C.2     1  UNL1        0.0000
    685 C          -7.6525   12.6586   18.6561 C.3     1  UNL1        0.0000
    686 C         -12.4086    5.5642   20.5742 C.2     1  UNL1        0.0000
    687 C          -2.5227   10.2849   13.0731 C.3     1  UNL1        0.0000
    688 C          -8.9493   19.1881   13.0838 C.3     1  UNL1        0.0000
    689 C          -1.2002   13.9764   13.0171 C.3     1  UNL1        0.0000
    690 C         -11.8584   16.5500   12.9753 C.2     1  UNL1        0.0000
    691 C          -2.3475    8.1610   14.3259 C.ar    1  UNL1        0.0000
    692 C         -13.4943   14.2613   24.9789 C.ar    1  UNL1        0.0000
    693 C           0.7529   14.8680   14.2042 C.ar    1  UNL1        0.0000
    694 C         -18.5285    8.8398   24.8174 C.3     1  UNL1        0.0000
    695 C          -3.8427    7.7955   24.8319 C.ar    1  UNL1        0.0000
    696 C         -13.9579   15.9052   14.1633 C.3     1  UNL1        0.0000
    697 C          -7.0050    1.0236   24.9810 C.ar    1  UNL1        0.0000
    698 C          -8.8428   21.3728   14.3506 C.ar    1  UNL1        0.0000
    699 N          -8.7877   20.7740   15.5887 N.pl3   1  UNL1        0.0000
    700 N          -4.4218    7.6126   23.5929 N.pl3   1  UNL1        0.0000
    701 N          -3.0322   12.0327   20.7161 N.pl3   1  UNL1        0.0000
    702 N          -4.9293    3.2960   22.3631 N.pl3   1  UNL1        0.0000
    703 O          -3.7749   12.3209   18.1490 O.3     1  UNL1        0.0000
    704 O         -14.1987    9.0864   21.0392 O.3     1  UNL1        0.0000
    705 O          -6.9485    4.9534   22.7609 O.3     1  UNL1        0.0000
    706 O         -10.4012   17.4020   16.4512 O.3     1  UNL1        0.0000
    707 O          -9.5649   16.0151   18.0373 O.3     1  UNL1        0.0000
    708 O          -8.5003    5.1974   21.1343 O.3     1  UNL1        0.0000
    709 O          -2.1867   11.9966   16.5715 O.3     1  UNL1        0.0000
    710 O         -15.0097   10.4735   22.6372 O.3     1  UNL1        0.0000
    711 O          -4.8592   11.7417   15.5724 O.3     1  UNL1        0.0000
    712 O         -12.5055    9.6003   23.1375 O.3     1  UNL1        0.0000
    713 O          -3.9204   14.0290   16.0224 O.3     1  UNL1        0.0000
    714 O         -14.2576    7.8756   23.6302 O.3     1  UNL1        0.0000
    715 O          -9.6511    4.6677   23.7249 O.3     1  UNL1        0.0000
    716 O          -7.8827   16.5631   15.9530 O.3     1  UNL1        0.0000
    717 O          -8.6972    6.9292   23.2607 O.3     1  UNL1        0.0000
    718 O          -9.5889   14.8060   15.4356 O.3     1  UNL1        0.0000
    719 O          -7.2799    3.8134   25.0270 O.3     1  UNL1        0.0000
    720 O          -9.0324   18.4867   14.1790 O.3     1  UNL1        0.0000
    721 O          -6.4778    6.6016   25.0219 O.3     1  UNL1        0.0000
    722 O         -11.2684   16.6510   14.1189 O.2     1  UNL1        0.0000
    723 O          -1.7396   13.6762   14.1651 O.3     1  UNL1        0.0000
    724 O         -15.8939    9.7158   24.9529 O.2     1  UNL1        0.0000
    725 O          -2.5351   10.9219   14.1945 O.3     1  UNL1        0.0000
    726 O         -13.6257   11.4981   25.0342 O.3     1  UNL1        0.0000
    727 O          -6.6674   14.1331   16.0735 O.3     1  UNL1        0.0000
    728 O         -11.3694    7.1293   23.0545 O.3     1  UNL1        0.0000
    729 O          -4.2133   12.9080   13.1407 O.3     1  UNL1        0.0000
    730 O          -8.7810   16.0101   12.9740 O.3     1  UNL1        0.0000
    731 H          -7.5823    8.8474   21.3611 H       1  UNL1        0.0000
    732 H         -11.4823    3.1277   19.8797 H       1  UNL1        0.0000
    733 H          -6.7498   17.8751   18.5790 H       1  UNL1        0.0000
    734 H          -6.4589   10.6098   19.9604 H       1  UNL1        0.0000
    735 H         -11.3982   10.6994   20.6123 H       1  UNL1        0.0000
    736 H         -14.9425    5.6686   19.6538 H       1  UNL1        0.0000
    737 H         -10.0422    8.9010   21.6511 H       1  UNL1        0.0000
    738 H         -10.2692   12.4679   19.2355 H       1  UNL1        0.0000
    739 H          -5.6568   15.6878   18.1750 H       1  UNL1        0.0000
    740 H         -19.2777   15.8889   18.7159 H      49  UNL49       0.0000
    741 C          -8.2995   11.6443   19.5297 C.ar    1  UNL1        0.0000
    742 C          -9.5517    9.6736   21.0600 C.ar    1  UNL1        0.0000
    743 C          -5.0934   16.4926   18.6480 C.ar    1  UNL1        0.0000
    744 C         -13.1396    4.5034   19.8283 C.2     1  UNL1        0.0000
    745 C          -9.6943   11.6772   19.7130 C.ar    1  UNL1        0.0000
    746 C          -8.1617    9.6426   20.8938 C.ar    1  UNL1        0.0000
    747 C          -5.7126   17.7273   18.8762 C.ar    1  UNL1        0.0000
    748 C         -12.5185    3.2663   19.5789 C.3     1  UNL1        0.0000
    749 C          -3.7552   16.2900   19.0046 C.ar    1  UNL1        0.0000
    750 C         -14.4793    4.7055   19.4505 C.3     1  UNL1        0.0000
    751 C          -7.5347   10.6241   20.1229 C.ar    1  UNL1        0.0000
    752 C         -10.3180   10.6884   20.4742 C.ar    1  UNL1        0.0000
    753 O          -6.4109   12.5142   18.3613 O.3     1  UNL1        0.0000
    754 O         -13.0380    6.6398   20.8783 O.2     1  UNL1        0.0000
    755 O         -11.2011    5.3339   20.9360 O.2     1  UNL1        0.0000
    756 O          -8.3699   13.6196   18.2132 O.3     1  UNL1        0.0000
    757 N          -5.2059   17.9820   38.1251 N.pl3  21  UNL21       0.0000
    758 N          -4.7488   17.1931   40.1101 N.pl3  21  UNL21       0.0000
    759 C          -4.5620   16.7677   37.9425 C.2    21  UNL21       0.0000
    760 C          -4.2744   16.2751   39.1888 C.2    21  UNL21       0.0000
    761 C          -3.4495   18.1474   41.9978 C.3    21  UNL21       0.0000
    762 C          -5.6774   18.8758   37.0603 C.3    21  UNL21       0.0000
    763 C          -5.3173   18.2162   39.4445 C.3    21  UNL21       0.0000
    764 C          -4.5308   17.1554   41.5743 C.3    21  UNL21       0.0000
    765 H          -4.3425   16.3616   36.9632 H      21  UNL21       0.0000
    766 H          -3.7964   15.3505   39.4907 H      21  UNL21       0.0000
    767 H          -2.4945   17.9251   41.5051 H      21  UNL21       0.0000
    768 H          -4.8293   19.1530   36.4251 H      21  UNL21       0.0000
    769 H          -3.7326   19.1808   41.7607 H      21  UNL21       0.0000
    770 H          -6.4367   18.3449   36.4739 H      21  UNL21       0.0000
    771 H          -3.3020   18.0777   43.0839 H      21  UNL21       0.0000
    772 H          -4.2348   16.1262   41.8184 H      21  UNL21       0.0000
    773 H          -6.1155   19.7674   37.5193 H      21  UNL21       0.0000
    774 H          -5.7954   19.0780   39.8927 H      21  UNL21       0.0000
    775 H          -5.4991   17.3513   42.0508 H      21  UNL21       0.0000
    776 N           0.4181   25.2979   39.9638 N.3    22  UNL22       0.0000
    777 C          -1.9861   25.6624   38.6374 C.3    22  UNL22       0.0000
    778 C           2.5106   23.7938   39.8223 C.3    22  UNL22       0.0000
    779 O          -1.5008   26.4236   41.0855 O.2    22  UNL22       0.0000
    780 O          -0.3434   27.6116   39.1619 O.2    22  UNL22       0.0000
    781 O           2.7103   26.4254   39.5692 O.2    22  UNL22       0.0000
    782 O           1.6588   25.1617   37.6789 O.2    22  UNL22       0.0000
    783 F          -2.7040   24.6687   39.2267 F      22  UNL22       0.0000
    784 F           1.8973   22.7014   39.3067 F      22  UNL22       0.0000
    785 F          -1.3868   25.1506   37.5349 F      22  UNL22       0.0000
    786 F          -2.8587   26.6345   38.2426 F      22  UNL22       0.0000
    787 F           2.4179   23.7404   41.1710 F      22  UNL22       0.0000
    788 F           3.8245   23.7379   39.4800 F      22  UNL22       0.0000
    789 S          -0.7473   26.3812   39.8471 S.O2   22  UNL22       0.0000
    790 S           1.7807   25.3721   39.1159 S.O2   22  UNL22       0.0000
    791 TI        -18.6418    2.7094   37.3791 Ti      1  UNL1        0.0000
    792 TI         -7.8113    5.5906   28.0143 Ti      1  UNL1        0.0000
    793 TI        -14.5451   -1.2268   35.5591 Ti      1  UNL1        0.0000
    794 TI        -13.0339    7.9353   29.7861 Ti      1  UNL1        0.0000
    795 TI        -14.0325    9.6136   27.8817 Ti      1  UNL1        0.0000
    796 TI        -12.6569   -1.4811   37.5125 Ti      1  UNL1        0.0000
    797 TI        -17.6926    0.9735   35.4876 Ti      1  UNL1        0.0000
    798 TI         -9.7991    5.8932   29.8618 Ti      1  UNL1        0.0000
    799 H         -18.1399    6.6065   37.1596 H       5  UNL5        0.0000
    800 H          -7.0025    1.6846   28.3350 H       1  UNL1        0.0000
    801 H         -22.6017    1.9528   36.9966 H       6  UNL6        0.0000
    802 H          -4.4291    7.5949   28.2149 H       1  UNL1        0.0000
    803 H         -11.6813   -5.5157   37.1266 H       1  UNL1        0.0000
    804 H         -18.0910    9.0237   28.2038 H       1  UNL1        0.0000
    805 H         -13.5380    7.9768   26.0086 H       1  UNL1        0.0000
    806 H          -9.6868    5.3479   26.3144 H       1  UNL1        0.0000
    807 H         -12.1470   -2.1483   32.0014 H       1  UNL1        0.0000
    808 H         -14.7573    9.7724   33.4050 H       1  UNL1        0.0000
    809 H         -21.7652    4.3621   35.1317 H       1  UNL1        0.0000
    810 H          -5.0565    3.5063   30.3203 H       1  UNL1        0.0000
    811 H         -19.4641    2.9147   31.7979 H       1  UNL1        0.0000
    812 H         -17.1325   11.4415   30.2349 H       1  UNL1        0.0000
    813 H         -13.6402   12.7165   28.7372 H       1  UNL1        0.0000
    814 H          -7.1603   -0.3343   29.5375 H       1  UNL1        0.0000
    815 H         -10.9413    7.6155   28.4475 H       1  UNL1        0.0000
    816 H         -15.6258    0.6216   36.8527 H       1  UNL1        0.0000
    817 H          -8.4221    0.4537   35.9021 H       7  UNL7        0.0000
    818 H          -9.9033   -0.0154   36.6495 H       7  UNL7        0.0000
    819 H          -7.8480    4.8873   34.8032 H       1  UNL1        0.0000
    820 H          -8.4177    5.2459   33.1847 H       1  UNL1        0.0000
    821 H          -8.9109   -4.5011   35.7121 H       1  UNL1        0.0000
    822 H         -10.1901   -3.4005   36.1695 H       1  UNL1        0.0000
    823 C          -7.2332    4.8494   30.8778 C.3     1  UNL1        0.0000
    824 C         -19.6023    2.9708   34.5321 C.3     1  UNL1        0.0000
    825 C         -11.9646   -2.2375   34.6344 C.3     1  UNL1        0.0000
    826 C         -14.9700    9.9058   30.7454 C.3     1  UNL1        0.0000
    827 C          -6.3372    4.2451   31.8730 C.ar    1  UNL1        0.0000
    828 C         -20.5342    3.5958   33.5550 C.2     1  UNL1        0.0000
    829 C         -11.0244   -2.8519   33.6872 C.ar    1  UNL1        0.0000
    830 C         -15.8598   10.5526   31.7452 C.ar    1  UNL1        0.0000
    831 C          -6.5860    4.3200   33.2794 C.ar    1  UNL1        0.0000
    832 C         -20.3178    3.4758   32.1670 C.3     1  UNL1        0.0000
    833 C          -9.8949   -3.6122   34.1403 C.ar    1  UNL1        0.0000
    834 C         -16.9545   11.3256   31.3003 C.ar    1  UNL1        0.0000
    835 C         -15.6053   10.3819   33.1001 C.ar    1  UNL1        0.0000
    836 C         -11.2721   -2.7197   32.3033 C.ar    1  UNL1        0.0000
    837 C          -5.2036    3.5461   31.3973 C.ar    1  UNL1        0.0000
    838 C         -21.6344    4.2882   34.0537 C.2     1  UNL1        0.0000
    839 C          -7.0215    1.7636   26.1909 C.ar    1  UNL1        0.0000
    840 C         -13.4912   13.5552   26.2159 C.ar    1  UNL1        0.0000
    841 C          -4.5370    7.5267   26.0649 C.ar    1  UNL1        0.0000
    842 C         -17.8954    9.0692   26.0455 C.2     1  UNL1        0.0000
    843 C         -12.2872    5.5922   31.7507 C.3     1  UNL1        0.0000
    844 C         -17.0433   -1.5022   33.6688 C.2     1  UNL1        0.0000
    845 C          -7.1573    3.2185   26.1677 C.3     1  UNL1        0.0000
    846 C         -13.5840   12.1217   26.1784 C.3     1  UNL1        0.0000
    847 C          -5.8349    6.9099   26.1117 C.3     1  UNL1        0.0000
    848 C         -16.4931    9.4835   26.0699 C.2     1  UNL1        0.0000
    849 C          -6.9821    1.0945   27.4206 C.ar    1  UNL1        0.0000
    850 C         -18.1290    7.1949   38.0735 C.2     5  UNL5        0.0000
    851 C          -3.8817    7.8015   27.2988 C.ar    1  UNL1        0.0000
    852 C         -23.1632    1.7734   37.9120 C.3    23  UNL23       0.0000
    853 C          -8.4774    0.7290   37.9265 C.2     7  UNL7        0.0000
    854 C         -18.5926    8.8388   27.2580 C.3     1  UNL1        0.0000
    855 C         -11.6396   -6.0428   38.0756 C.2     1  UNL1        0.0000
    856 C         -13.4774   14.3064   27.4452 C.ar    1  UNL1        0.0000
    857 N         -13.4224   13.7076   28.6833 N.pl3   1  UNL1        0.0000
    858 N          -9.0564    0.5462   36.6875 N.pl3   7  UNL7        0.0000
    859 N          -7.6669    4.9662   33.8107 N.pl3   1  UNL1        0.0000
    860 N          -9.5639   -3.7704   35.4577 N.pl3   1  UNL1        0.0000
    861 O          -8.4096    5.2545   31.2436 O.3     1  UNL1        0.0000
    862 O         -18.8333    2.0199   34.1338 O.3     1  UNL1        0.0000
    863 O         -11.5831   -2.1130   35.8555 O.3     1  UNL1        0.0000
    864 O         -15.0359   10.3355   29.5458 O.3     1  UNL1        0.0000
    865 O         -14.1995    8.9486   31.1319 O.3     1  UNL1        0.0000
    866 O         -13.1350   -1.8691   34.2289 O.3     1  UNL1        0.0000
    867 O          -6.8214    4.9301   29.6661 O.3     1  UNL1        0.0000
    868 O         -19.6443    3.4070   35.7318 O.3     1  UNL1        0.0000
    869 O          -9.4939    4.6753   28.6671 O.3     1  UNL1        0.0000
    870 O         -17.1401    2.5339   36.2321 O.3     1  UNL1        0.0000
    871 O          -8.5551    6.9625   29.1170 O.3     1  UNL1        0.0000
    872 O         -18.8923    0.8092   36.7248 O.3     1  UNL1        0.0000
    873 O         -14.2858   -2.3988   36.8195 O.3     1  UNL1        0.0000
    874 O         -12.5173    9.4966   29.0476 O.3     1  UNL1        0.0000
    875 O         -13.3318   -0.1373   36.3554 O.3     1  UNL1        0.0000
    876 O         -14.2236    7.7395   28.5302 O.3     1  UNL1        0.0000
    877 O         -11.9145   -3.2530   38.1216 O.3     1  UNL1        0.0000
    878 O         -13.6671   11.4203   27.2736 O.3     1  UNL1        0.0000
    879 O         -11.1124   -0.4648   38.1165 O.3     1  UNL1        0.0000
    880 O         -15.9030    9.5845   27.2135 O.2     1  UNL1        0.0000
    881 O          -6.3742    6.6097   27.2597 O.3     1  UNL1        0.0000
    882 O         -20.5285    2.6493   38.0475 O.3     1  UNL1        0.0000
    883 O          -7.1698    3.8554   27.2891 O.3     1  UNL1        0.0000
    884 O         -18.2603    4.4317   38.1288 O.3     1  UNL1        0.0000
    885 O         -11.3021    7.0667   29.1681 O.3     1  UNL1        0.0000
    886 O         -16.0040    0.0629   36.1492 O.3     1  UNL1        0.0000
    887 O          -8.8480    5.8416   26.2353 O.3     1  UNL1        0.0000
    888 O         -13.4156    8.9436   26.0686 O.3     1  UNL1        0.0000
    889 H         -12.2170    1.7810   34.4557 H       1  UNL1        0.0000
    890 H         -16.1169   -3.9387   32.9744 H       1  UNL1        0.0000
    891 H         -11.3844   10.8086   31.6736 H       1  UNL1        0.0000
    892 H         -11.0936    3.5434   33.0550 H       1  UNL1        0.0000
    893 H         -16.0328    3.6330   33.7069 H       1  UNL1        0.0000
    894 H         -19.5771   -1.3978   32.7484 H       1  UNL1        0.0000
    895 H         -14.6769    1.8346   34.7458 H       1  UNL1        0.0000
    896 H         -14.9038    5.4015   32.3302 H       1  UNL1        0.0000
    897 H         -10.2914    8.6214   31.2696 H       1  UNL1        0.0000
    898 H         -23.9124    8.8224   31.8106 H      49  UNL49       0.0000
    899 C         -12.9342    4.5778   32.6243 C.ar    1  UNL1        0.0000
    900 C         -14.1863    2.6071   34.1546 C.ar    1  UNL1        0.0000
    901 C          -9.7281    9.4261   31.7426 C.ar    1  UNL1        0.0000
    902 C         -17.7742   -2.5630   32.9229 C.2     1  UNL1        0.0000
    903 C         -14.3290    4.6108   32.8076 C.ar    1  UNL1        0.0000
    904 C         -12.7963    2.5762   33.9885 C.ar    1  UNL1        0.0000
    905 C         -10.3473   10.6609   31.9708 C.ar    1  UNL1        0.0000
    906 C         -17.1532   -3.8001   32.6735 C.3     1  UNL1        0.0000
    907 C          -8.3898    9.2235   32.0992 C.ar    1  UNL1        0.0000
    908 C         -19.1139   -2.3610   32.5451 C.3     1  UNL1        0.0000
    909 C         -12.1694    3.5577   33.2175 C.ar    1  UNL1        0.0000
    910 C         -14.9526    3.6220   33.5688 C.ar    1  UNL1        0.0000
    911 O         -11.0455    5.4477   31.4559 O.3     1  UNL1        0.0000
    912 O         -17.6726   -0.4266   33.9730 O.2     1  UNL1        0.0000
    913 O         -15.8357   -1.7326   34.0306 O.2     1  UNL1        0.0000
    914 O         -13.0046    6.5532   31.3078 O.3     1  UNL1        0.0000
    915 N          -9.8405   10.9155   51.2197 N.pl3  25  UNL25       0.0000
    916 N          -9.3835   10.1266   53.2047 N.pl3  25  UNL25       0.0000
    917 C          -9.1967    9.7012   51.0371 C.2    25  UNL25       0.0000
    918 C          -8.9090    9.2086   52.2834 C.2    25  UNL25       0.0000
    919 C          -8.0842   11.0810   55.0924 C.3    25  UNL25       0.0000
    920 C         -10.3120   11.8094   50.1549 C.3    25  UNL25       0.0000
    921 C          -9.9519   11.1498   52.5391 C.3    25  UNL25       0.0000
    922 C          -9.1654   10.0890   54.6689 C.3    25  UNL25       0.0000
    923 H          -8.9771    9.2952   50.0578 H      25  UNL25       0.0000
    924 H          -8.4310    8.2840   52.5853 H      25  UNL25       0.0000
    925 H          -7.1291   10.8586   54.5997 H      25  UNL25       0.0000
    926 H          -9.4639   12.0866   49.5197 H      25  UNL25       0.0000
    927 H          -8.3673   12.1144   54.8553 H      25  UNL25       0.0000
    928 H         -11.0714   11.2785   49.5685 H      25  UNL25       0.0000
    929 H          -7.9367   11.0113   56.1785 H      25  UNL25       0.0000
    930 H          -8.8694    9.0598   54.9130 H      25  UNL25       0.0000
    931 H         -10.7502   12.7010   50.6140 H      25  UNL25       0.0000
    932 H         -10.4300   12.0116   52.9874 H      25  UNL25       0.0000
    933 H         -10.1337   10.2848   55.1455 H      25  UNL25       0.0000
    934 N          -4.2166   18.2314   53.0584 N.3    26  UNL26       0.0000
    935 C          -6.6207   18.5960   51.7320 C.3    26  UNL26       0.0000
    936 C          -2.1240   16.7274   52.9169 C.3    26  UNL26       0.0000
    937 O          -6.1355   19.3572   54.1801 O.2    26  UNL26       0.0000
    938 O          -4.9781   20.5451   52.2565 O.2    26  UNL26       0.0000
    939 O          -1.9244   19.3589   52.6638 O.2    26  UNL26       0.0000
    940 O          -2.9759   18.0953   50.7735 O.2    26  UNL26       0.0000
    941 F          -7.3387   17.6023   52.3213 F      26  UNL26       0.0000
    942 F          -2.7373   15.6349   52.4013 F      26  UNL26       0.0000
    943 F          -6.0214   18.0842   50.6296 F      26  UNL26       0.0000
    944 F          -7.4934   19.5681   51.3372 F      26  UNL26       0.0000
    945 F          -2.2168   16.6740   54.2656 F      26  UNL26       0.0000
    946 F          -0.8102   16.6715   52.5746 F      26  UNL26       0.0000
    947 S          -5.3819   19.3147   52.9417 S.O2   26  UNL26       0.0000
    948 S          -2.8540   18.3056   52.2105 S.O2   26  UNL26       0.0000
    949 TI        -15.8895   31.4548   11.1334 Ti      1  UNL1        0.0000
    950 TI         -5.0590   34.3360    1.7686 Ti      1  UNL1        0.0000
    951 TI        -11.7928   27.5186    9.3134 Ti      1  UNL1        0.0000
    952 TI        -10.2816   36.6807    3.5403 Ti      1  UNL1        0.0000
    953 TI        -11.2802   38.3590    1.6360 Ti      1  UNL1        0.0000
    954 TI         -9.9046   27.2642   11.2667 Ti      1  UNL1        0.0000
    955 TI        -14.9403   29.7189    9.2419 Ti      1  UNL1        0.0000
    956 TI         -7.0468   34.6385    3.6160 Ti      1  UNL1        0.0000
    957 H         -15.3876   35.3519   10.9139 H       1  UNL1        0.0000
    958 H          -4.2502   30.4299    2.0892 H       1  UNL1        0.0000
    959 H         -19.8494   30.6982   10.7509 H       1  UNL1        0.0000
    960 H          -1.6769   36.3403    1.9692 H       1  UNL1        0.0000
    961 H          -8.9290   23.2297   10.8808 H       1  UNL1        0.0000
    962 H         -15.3387   37.7691    1.9580 H       1  UNL1        0.0000
    963 H         -10.7857   36.7222   -0.2371 H       1  UNL1        0.0000
    964 H          -6.9345   34.0933    0.0686 H       1  UNL1        0.0000
    965 H          -9.3947   26.5971    5.7556 H       1  UNL1        0.0000
    966 H         -12.0051   38.5177    7.1593 H       1  UNL1        0.0000
    967 H         -19.0129   33.1075    8.8860 H       1  UNL1        0.0000
    968 H          -2.3043   32.2517    4.0745 H       1  UNL1        0.0000
    969 H         -16.7118   31.6601    5.5521 H       1  UNL1        0.0000
    970 H         -14.3803   40.1869    3.9892 H       1  UNL1        0.0000
    971 H         -10.8879   41.4619    2.4914 H       1  UNL1        0.0000
    972 H          -4.4081   28.4111    3.2917 H       1  UNL1        0.0000
    973 H          -8.1890   36.3608    2.2017 H       1  UNL1        0.0000
    974 H         -12.8735   29.3670   10.6070 H       1  UNL1        0.0000
    975 H          -5.6699   29.1991    9.6564 H       1  UNL1        0.0000
    976 H          -7.1510   28.7300   10.4037 H       1  UNL1        0.0000
    977 H          -5.0957   33.6327    8.5575 H       1  UNL1        0.0000
    978 H          -5.6655   33.9913    6.9390 H       1  UNL1        0.0000
    979 H          -6.1587   24.2443    9.4664 H       1  UNL1        0.0000
    980 H          -7.4378   25.3448    9.9238 H       1  UNL1        0.0000
    981 C          -4.4810   33.5948    4.6321 C.3     1  UNL1        0.0000
    982 C         -16.8500   31.7162    8.2863 C.3     1  UNL1        0.0000
    983 C          -9.2123   26.5079    8.3887 C.3     1  UNL1        0.0000
    984 C         -12.2177   38.6512    4.4997 C.3     1  UNL1        0.0000
    985 C          -3.5850   32.9904    5.6273 C.ar    1  UNL1        0.0000
    986 C         -17.7819   32.3412    7.3093 C.2     1  UNL1        0.0000
    987 C          -8.2721   25.8935    7.4415 C.ar    1  UNL1        0.0000
    988 C         -13.1076   39.2980    5.4995 C.2     1  UNL1        0.0000
    989 C          -3.8337   33.0654    7.0337 C.ar    1  UNL1        0.0000
    990 C         -17.5656   32.2212    5.9213 C.3     1  UNL1        0.0000
    991 C          -7.1427   25.1332    7.8945 C.ar    1  UNL1        0.0000
    992 C         -14.2023   40.0710    5.0546 C.3     1  UNL1        0.0000
    993 C         -12.8531   39.1273    6.8544 C.2     1  UNL1        0.0000
    994 C          -8.5198   26.0257    6.0575 C.ar    1  UNL1        0.0000
    995 C          -2.4513   32.2915    5.1516 C.ar    1  UNL1        0.0000
    996 C         -18.8821   33.0336    7.8080 C.2     1  UNL1        0.0000
    997 C          -4.2692   30.5090   -0.0549 C.2     1  UNL1        0.0000
    998 C         -10.7389   42.3006   -0.0298 C.2     1  UNL1        0.0000
    999 C          -1.7848   36.2721   -0.1809 C.2     1  UNL1        0.0000
   1000 C         -15.1431   37.8146   -0.2003 C.2     1  UNL1        0.0000
   1001 C          -9.5349   34.3375    5.5049 C.3     1  UNL1        0.0000
   1002 C         -14.2910   27.2432    7.4231 C.2     1  UNL1        0.0000
   1003 C          -4.4051   31.9639   -0.0781 C.2     1  UNL1        0.0000
   1004 C         -10.8317   40.8671   -0.0673 C.2     1  UNL1        0.0000
   1005 C          -3.0826   35.6553   -0.1340 C.2     1  UNL1        0.0000
   1006 C         -13.7408   38.2289   -0.1758 C.2     1  UNL1        0.0000
   1007 C          -4.2299   29.8399    1.1748 C.2     1  UNL1        0.0000
   1008 C         -15.3767   35.9403   11.8278 C.3     1  UNL1        0.0000
   1009 C          -1.1295   36.5469    1.0531 C.2     1  UNL1        0.0000
   1010 C         -20.4109   30.5188   11.6663 C.3     1  UNL1        0.0000
   1011 C          -5.7251   29.4744   11.6808 C.ar    1  UNL1        0.0000
   1012 C         -15.8403   37.5841    1.0122 C.3     1  UNL1        0.0000
   1013 C          -8.8874   22.7025   11.8299 C.ar    1  UNL1        0.0000
   1014 C         -10.7252   43.0518    1.1994 C.3     1  UNL1        0.0000
   1015 N         -10.6701   42.4530    2.4376 N.3     1  UNL1        0.0000
   1016 N          -6.3042   29.2916   10.4418 N.pl3   1  UNL1        0.0000
   1017 N          -4.9146   33.7116    7.5650 N.pl3   1  UNL1        0.0000
   1018 N          -6.8116   24.9750    9.2119 N.pl3   1  UNL1        0.0000
   1019 O          -5.6573   33.9999    4.9979 O.3     1  UNL1        0.0000
   1020 O         -16.0811   30.7653    7.8880 O.3     1  UNL1        0.0000
   1021 O          -8.8309   26.6324    9.6098 O.3     1  UNL1        0.0000
   1022 O         -12.2836   39.0809    3.3001 O.3     1  UNL1        0.0000
   1023 O         -11.4473   37.6940    4.8862 O.3     1  UNL1        0.0000
   1024 O         -10.3827   26.8763    7.9831 O.3     1  UNL1        0.0000
   1025 O          -4.0691   33.6755    3.4203 O.3     1  UNL1        0.0000
   1026 O         -16.8921   32.1524    9.4860 O.3     1  UNL1        0.0000
   1027 O          -6.7416   33.4206    2.4213 O.3     1  UNL1        0.0000
   1028 O         -14.3878   31.2792    9.9864 O.3     1  UNL1        0.0000
   1029 O          -5.8028   35.7079    2.8713 O.3     1  UNL1        0.0000
   1030 O         -16.1400   29.5546   10.4791 O.3     1  UNL1        0.0000
   1031 O         -11.5335   26.3466   10.5738 O.3     1  UNL1        0.0000
   1032 O          -9.7651   38.2420    2.8019 O.3     1  UNL1        0.0000
   1033 O         -10.5796   28.6081   10.1096 O.3     1  UNL1        0.0000
   1034 O         -11.4713   36.4849    2.2844 O.3     1  UNL1        0.0000
   1035 O          -9.1623   25.4924   11.8759 O.3     1  UNL1        0.0000
   1036 O         -10.9148   40.1656    1.0279 O.2     1  UNL1        0.0000
   1037 O          -8.3601   28.2806   11.8707 O.3     1  UNL1        0.0000
   1038 O         -13.1507   38.3299    0.9678 O.2     1  UNL1        0.0000
   1039 O          -3.6219   35.3551    1.0140 O.2     1  UNL1        0.0000
   1040 O         -17.7763   31.3947   11.8018 O.2     1  UNL1        0.0000
   1041 O          -4.4175   32.6008    1.0434 O.2     1  UNL1        0.0000
   1042 O         -15.5081   33.1771   11.8831 O.2     1  UNL1        0.0000
   1043 O          -8.5498   35.8121    2.9224 O.3     1  UNL1        0.0000
   1044 O         -13.2518   28.8083    9.9034 O.3     1  UNL1        0.0000
   1045 O          -6.0957   34.5870   -0.0104 O.3     1  UNL1        0.0000
   1046 O         -10.6634   37.6890   -0.1772 O.3     1  UNL1        0.0000
   1047 H          -9.4647   30.5264    8.2100 H       1  UNL1        0.0000
   1048 H         -13.3646   24.8067    6.7286 H       1  UNL1        0.0000
   1049 H          -8.6321   39.5540    5.4278 H       8  UNL8        0.0000
   1050 H          -8.3413   32.2888    6.8093 H       1  UNL1        0.0000
   1051 H         -13.2805   32.3784    7.4611 H       1  UNL1        0.0000
   1052 H         -16.8249   27.3476    6.5027 H       1  UNL1        0.0000
   1053 H         -11.9246   30.5800    8.5000 H       1  UNL1        0.0000
   1054 H         -12.1515   34.1469    6.0844 H       1  UNL1        0.0000
   1055 H          -7.5392   37.3668    5.0239 H       8  UNL8        0.0000
   1056 H         -21.1601   37.5678    5.5648 H      49  UNL49       0.0000
   1057 C         -10.1819   33.3232    6.3786 C.ar    1  UNL1        0.0000
   1058 C         -11.4341   31.3525    7.9089 C.ar    1  UNL1        0.0000
   1059 C          -6.9758   38.1715    5.4969 C.2     8  UNL8        0.0000
   1060 C         -15.0219   26.1824    6.6771 C.2     1  UNL1        0.0000
   1061 C         -11.5767   33.3562    6.5619 C.ar    1  UNL1        0.0000
   1062 C         -10.0440   31.3216    7.7427 C.ar    1  UNL1        0.0000
   1063 C          -7.5950   39.4063    5.7250 C.3     8  UNL8        0.0000
   1064 C         -14.4009   24.9453    6.4277 C.3     1  UNL1        0.0000
   1065 C          -5.6376   37.9689    5.8535 C.2     8  UNL8        0.0000
   1066 C         -16.3617   26.3844    6.2993 C.3     1  UNL1        0.0000
   1067 C          -9.4171   32.3031    6.9717 C.ar    1  UNL1        0.0000
   1068 C         -12.2004   32.3674    7.3230 C.ar    1  UNL1        0.0000
   1069 O          -8.2933   34.1931    5.2102 O.3     1  UNL1        0.0000
   1070 O         -14.9204   28.3188    7.7272 O.2     1  UNL1        0.0000
   1071 O         -13.0835   27.0128    7.7848 O.2     1  UNL1        0.0000
   1072 O         -10.2523   35.2986    5.0621 O.3     1  UNL1        0.0000
   1073 N          -7.0883   39.6609   24.9740 N.pl3  28  UNL28       0.0000
   1074 N          -6.6312   38.8720   26.9590 N.pl3  28  UNL28       0.0000
   1075 C          -6.4444   38.4466   24.7914 C.2    28  UNL28       0.0000
   1076 C          -6.1567   37.9540   26.0377 C.2    28  UNL28       0.0000
   1077 C          -5.3319   39.8264   28.8467 C.3    28  UNL28       0.0000
   1078 C          -7.5598   40.5548   23.9092 C.3    28  UNL28       0.0000
   1079 C          -7.1997   39.8952   26.2934 C.3    28  UNL28       0.0000
   1080 C          -6.4131   38.8344   28.4231 C.3    28  UNL28       0.0000
   1081 H          -6.2249   38.0405   23.8120 H      28  UNL28       0.0000
   1082 H          -5.6788   37.0294   26.3396 H      28  UNL28       0.0000
   1083 H          -4.3769   39.6040   28.3540 H      28  UNL28       0.0000
   1084 H          -6.7117   40.8320   23.2740 H      28  UNL28       0.0000
   1085 H          -5.6150   40.8598   28.6096 H      28  UNL28       0.0000
   1086 H          -8.3191   40.0239   23.3227 H      28  UNL28       0.0000
   1087 H          -5.1844   39.7567   29.9328 H      28  UNL28       0.0000
   1088 H          -6.1172   37.8052   28.6673 H      28  UNL28       0.0000
   1089 H          -7.9979   41.4464   24.3682 H      28  UNL28       0.0000
   1090 H          -7.6777   40.7569   26.7416 H      28  UNL28       0.0000
   1091 H          -7.3815   39.0302   28.8997 H      28  UNL28       0.0000
   1092 N          -1.4643   46.9768   26.8127 N.3    29  UNL29       0.0000
   1093 C          -3.8684   47.3414   25.4863 C.3    29  UNL29       0.0000
   1094 C           0.6282   45.4728   26.6712 C.3    29  UNL29       0.0000
   1095 O          -3.3832   48.1026   27.9344 O.2    29  UNL29       0.0000
   1096 O          -2.2258   49.2905   26.0107 O.2    29  UNL29       0.0000
   1097 O           0.8279   48.1043   26.4180 O.2    29  UNL29       0.0000
   1098 O          -0.2236   46.8407   24.5278 O.2    29  UNL29       0.0000
   1099 F          -4.5864   46.3477   26.0755 F      29  UNL29       0.0000
   1100 F           0.0149   44.3803   26.1556 F      29  UNL29       0.0000
   1101 F          -3.2692   46.8296   24.3838 F      29  UNL29       0.0000
   1102 F          -4.7411   48.3135   25.0915 F      29  UNL29       0.0000
   1103 F           0.5355   45.4193   28.0199 F      29  UNL29       0.0000
   1104 F           1.9421   45.4169   26.3289 F      29  UNL29       0.0000
   1105 S          -2.6296   48.0601   26.6960 S.O2   29  UNL29       0.0000
   1106 S          -0.1017   47.0510   25.9648 S.O2   29  UNL29       0.0000
   1107 TI        -20.5241   24.3883   24.2280 Ti      1  UNL1        0.0000
   1108 TI         -9.6937   27.2696   14.8632 Ti      1  UNL1        0.0000
   1109 TI        -16.4275   20.4521   22.4080 Ti      1  UNL1        0.0000
   1110 TI        -14.9163   29.6143   16.6350 Ti      1  UNL1        0.0000
   1111 TI        -15.9148   31.2926   14.7306 Ti      1  UNL1        0.0000
   1112 TI        -14.5393   20.1978   24.3614 Ti      1  UNL1        0.0000
   1113 TI        -19.5749   22.6525   22.3365 Ti      1  UNL1        0.0000
   1114 TI        -11.6815   27.5721   16.7106 Ti      1  UNL1        0.0000
   1115 H         -20.0223   28.2854   24.0085 H       1  UNL1        0.0000
   1116 H          -8.8849   23.3635   15.1838 H       1  UNL1        0.0000
   1117 H         -24.4840   23.6317   23.8455 H       1  UNL1        0.0000
   1118 H          -6.3115   29.2739   15.0638 H       1  UNL1        0.0000
   1119 H         -13.5636   16.1633   23.9754 H       1  UNL1        0.0000
   1120 H         -19.9734   30.7027   15.0526 H       1  UNL1        0.0000
   1121 H         -15.4204   29.6558   12.8575 H       1  UNL1        0.0000
   1122 H         -11.5692   27.0269   13.1632 H       1  UNL1        0.0000
   1123 H         -14.0293   19.5307   18.8503 H       1  UNL1        0.0000
   1124 H         -16.6397   31.4513   20.2539 H       1  UNL1        0.0000
   1125 H         -23.6476   26.0411   21.9806 H       1  UNL1        0.0000
   1126 H          -6.9389   25.1852   17.1692 H       1  UNL1        0.0000
   1127 H         -21.3465   24.5936   18.6467 H       1  UNL1        0.0000
   1128 H         -19.0149   33.1204   17.0838 H       1  UNL1        0.0000
   1129 H         -15.5226   34.3954   15.5860 H       1  UNL1        0.0000
   1130 H          -9.0427   21.3447   16.3863 H       1  UNL1        0.0000
   1131 H         -12.8236   29.2944   15.2963 H       1  UNL1        0.0000
   1132 H         -17.5082   22.3005   23.7016 H       1  UNL1        0.0000
   1133 H         -10.3045   22.1327   22.7510 H       1  UNL1        0.0000
   1134 H         -11.7856   21.6636   23.4984 H       1  UNL1        0.0000
   1135 H          -9.7304   26.5663   21.6521 H       1  UNL1        0.0000
   1136 H         -10.3001   26.9249   20.0336 H       1  UNL1        0.0000
   1137 H         -10.7933   17.1778   22.5610 H       1  UNL1        0.0000
   1138 H         -12.0725   18.2784   23.0184 H       1  UNL1        0.0000
   1139 C          -9.1156   26.5283   17.7267 C.3     1  UNL1        0.0000
   1140 C         -21.4847   24.6497   21.3809 C.3     1  UNL1        0.0000
   1141 C         -13.8470   19.4414   21.4833 C.3     1  UNL1        0.0000
   1142 C         -16.8524   31.5848   17.5943 C.3     1  UNL1        0.0000
   1143 C          -8.2196   25.9240   18.7219 C.ar    1  UNL1        0.0000
   1144 C         -22.4166   25.2747   20.4039 C.2     1  UNL1        0.0000
   1145 C         -12.9068   18.8271   20.5361 C.ar    1  UNL1        0.0000
   1146 C         -17.7422   32.2316   18.5941 C.2     1  UNL1        0.0000
   1147 C          -8.4684   25.9989   20.1283 C.ar    1  UNL1        0.0000
   1148 C         -22.2002   25.1548   19.0159 C.3     1  UNL1        0.0000
   1149 C         -11.7773   18.0668   20.9891 C.ar    1  UNL1        0.0000
   1150 C         -18.8369   33.0045   18.1492 C.3     1  UNL1        0.0000
   1151 C         -17.4877   32.0608   19.9490 C.2     1  UNL1        0.0000
   1152 C         -13.1545   18.9592   19.1522 C.ar    1  UNL1        0.0000
   1153 C          -7.0859   25.2250   18.2462 C.ar    1  UNL1        0.0000
   1154 C         -23.5168   25.9672   20.9026 C.2     1  UNL1        0.0000
   1155 C          -8.9039   23.4426   13.0398 C.ar    1  UNL1        0.0000
   1156 C         -15.3736   35.2342   13.0648 C.2     1  UNL1        0.0000
   1157 C          -6.4194   29.2057   12.9137 C.ar    1  UNL1        0.0000
   1158 C         -19.7778   30.7481   12.8944 C.2     1  UNL1        0.0000
   1159 C         -14.1695   27.2711   18.5995 C.3     1  UNL1        0.0000
   1160 C         -18.9256   20.1767   20.5177 C.2     1  UNL1        0.0000
   1161 C          -9.0397   24.8974   13.0166 C.3     1  UNL1        0.0000
   1162 C         -15.4663   33.8006   13.0273 C.2     1  UNL1        0.0000
   1163 C          -7.7173   28.5889   12.9606 C.3     1  UNL1        0.0000
   1164 C         -18.3754   31.1625   12.9188 C.2     1  UNL1        0.0000
   1165 C          -8.8645   22.7735   14.2694 C.ar    1  UNL1        0.0000
   1166 C         -20.0113   28.8738   24.9224 C.3     1  UNL1        0.0000
   1167 C          -5.7641   29.4805   14.1477 C.ar    1  UNL1        0.0000
   1168 C         -25.0455   23.4523   24.7609 C.3     1  UNL1        0.0000
   1169 C         -10.3598   22.4080   24.7754 C.ar    1  UNL1        0.0000
   1170 C         -20.4749   30.5177   14.1068 C.3     1  UNL1        0.0000
   1171 C         -13.5220   15.6361   24.9245 C.ar    1  UNL1        0.0000
   1172 C         -15.3598   35.9854   14.2940 C.3     1  UNL1        0.0000
   1173 N         -15.3048   35.3865   15.5322 N.3     1  UNL1        0.0000
   1174 N         -10.9388   22.2251   23.5364 N.pl3   1  UNL1        0.0000
   1175 N          -9.5493   26.6452   20.6596 N.pl3   1  UNL1        0.0000
   1176 N         -11.4463   17.9085   22.3065 N.pl3   1  UNL1        0.0000
   1177 O         -10.2920   26.9334   18.0925 O.3     1  UNL1        0.0000
   1178 O         -20.7157   23.6989   20.9827 O.3     1  UNL1        0.0000
   1179 O         -13.4655   19.5659   22.7044 O.3     1  UNL1        0.0000
   1180 O         -16.9183   32.0145   16.3947 O.3     1  UNL1        0.0000
   1181 O         -16.0819   30.6276   17.9808 O.3     1  UNL1        0.0000
   1182 O         -15.0174   19.8099   21.0778 O.3     1  UNL1        0.0000
   1183 O          -8.7038   26.6091   16.5149 O.3     1  UNL1        0.0000
   1184 O         -21.5267   25.0860   22.5807 O.3     1  UNL1        0.0000
   1185 O         -11.3763   26.3542   15.5159 O.3     1  UNL1        0.0000
   1186 O         -19.0225   24.2128   23.0810 O.3     1  UNL1        0.0000
   1187 O         -10.4375   28.6415   15.9659 O.3     1  UNL1        0.0000
   1188 O         -20.7747   22.4881   23.5737 O.3     1  UNL1        0.0000
   1189 O         -16.1682   19.2802   23.6684 O.3     1  UNL1        0.0000
   1190 O         -14.3997   31.1756   15.8965 O.3     1  UNL1        0.0000
   1191 O         -15.2142   21.5417   23.2042 O.3     1  UNL1        0.0000
   1192 O         -16.1059   29.4185   15.3791 O.3     1  UNL1        0.0000
   1193 O         -13.7969   18.4259   24.9705 O.3     1  UNL1        0.0000
   1194 O         -15.5495   33.0992   14.1225 O.2     1  UNL1        0.0000
   1195 O         -12.9948   21.2141   24.9653 O.3     1  UNL1        0.0000
   1196 O         -17.7854   31.2635   14.0624 O.2     1  UNL1        0.0000
   1197 O          -8.2566   28.2887   14.1086 O.3     1  UNL1        0.0000
   1198 O         -22.4109   24.3283   24.8964 O.2     1  UNL1        0.0000
   1199 O          -9.0522   25.5344   14.1380 O.3     1  UNL1        0.0000
   1200 O         -20.1427   26.1106   24.9777 O.2     1  UNL1        0.0000
   1201 O         -13.1845   28.7457   16.0170 O.3     1  UNL1        0.0000
   1202 O         -17.8864   21.7418   22.9980 O.3     1  UNL1        0.0000
   1203 O         -10.7304   27.5205   13.0842 O.3     1  UNL1        0.0000
   1204 O         -15.2980   30.6226   12.9175 O.3     1  UNL1        0.0000
   1205 H         -14.0993   23.4599   21.3046 H       1  UNL1        0.0000
   1206 H         -17.9993   17.7403   19.8232 H       1  UNL1        0.0000
   1207 H         -13.2668   32.4876   18.5224 H       9  UNL9        0.0000
   1208 H         -12.9760   25.2223   19.9039 H       1  UNL1        0.0000
   1209 H         -17.9152   25.3119   20.5557 H       1  UNL1        0.0000
   1210 H         -21.4595   20.2812   19.5973 H       1  UNL1        0.0000
   1211 H         -16.5592   23.5136   21.5946 H       1  UNL1        0.0000
   1212 H         -16.7862   27.0804   19.1790 H       1  UNL1        0.0000
   1213 H         -12.1738   30.3003   18.1185 H       9  UNL9        0.0000
   1214 H         -25.7947   30.5014   18.6594 H      49  UNL49       0.0000
   1215 C         -14.8165   26.2568   19.4732 C.ar    1  UNL1        0.0000
   1216 C         -16.0687   24.2861   21.0035 C.ar    1  UNL1        0.0000
   1217 C         -11.6104   31.1051   18.5915 C.2     9  UNL9        0.0000
   1218 C         -19.6566   19.1159   19.7717 C.2     1  UNL1        0.0000
   1219 C         -16.2113   26.2897   19.6565 C.ar    1  UNL1        0.0000
   1220 C         -14.6787   24.2551   20.8373 C.ar    1  UNL1        0.0000
   1221 C         -12.2297   32.3399   18.8196 C.3     9  UNL9        0.0000
   1222 C         -19.0356   17.8788   19.5223 C.3     1  UNL1        0.0000
   1223 C         -10.2722   30.9025   18.9481 C.2     9  UNL9        0.0000
   1224 C         -20.9963   19.3180   19.3939 C.3     1  UNL1        0.0000
   1225 C         -14.0518   25.2366   20.0664 C.ar    1  UNL1        0.0000
   1226 C         -16.8350   25.3009   20.4176 C.ar    1  UNL1        0.0000
   1227 O         -12.9279   27.1267   18.3048 O.3     1  UNL1        0.0000
   1228 O         -19.5550   21.2524   20.8218 O.2     1  UNL1        0.0000
   1229 O         -17.7181   19.9464   20.8795 O.2     1  UNL1        0.0000
   1230 O         -14.8869   28.2321   18.1567 O.3     1  UNL1        0.0000
   1231 N         -11.7229   32.5945   38.0686 N.pl3  31  UNL31       0.0000
   1232 N         -11.2659   31.8056   40.0536 N.pl3  31  UNL31       0.0000
   1233 C         -11.0791   31.3802   37.8860 C.2    31  UNL31       0.0000
   1234 C         -10.7914   30.8876   39.1323 C.2    31  UNL31       0.0000
   1235 C          -9.9666   32.7599   41.9413 C.3    31  UNL31       0.0000
   1236 C         -12.1944   33.4883   37.0038 C.3    31  UNL31       0.0000
   1237 C         -11.8343   32.8287   39.3880 C.3    31  UNL31       0.0000
   1238 C         -11.0478   31.7679   41.5177 C.3    31  UNL31       0.0000
   1239 H         -10.8595   30.9741   36.9066 H      31  UNL31       0.0000
   1240 H         -10.3134   29.9630   39.4342 H      31  UNL31       0.0000
   1241 H          -9.0115   32.5376   41.4486 H      31  UNL31       0.0000
   1242 H         -11.3463   33.7655   36.3686 H      31  UNL31       0.0000
   1243 H         -10.2497   33.7933   41.7042 H      31  UNL31       0.0000
   1244 H         -12.9537   32.9574   36.4174 H      31  UNL31       0.0000
   1245 H          -9.8191   32.6902   43.0274 H      31  UNL31       0.0000
   1246 H         -10.7518   30.7387   41.7619 H      31  UNL31       0.0000
   1247 H         -12.6325   34.3800   37.4628 H      31  UNL31       0.0000
   1248 H         -12.3124   33.6905   39.8362 H      31  UNL31       0.0000
   1249 H         -12.0161   31.9638   41.9943 H      31  UNL31       0.0000
   1250 N          -6.0989   39.9104   39.9073 N.3    32  UNL32       0.0000
   1251 C          -8.5031   40.2749   38.5809 C.3    32  UNL32       0.0000
   1252 C          -4.0064   38.4063   39.7658 C.3    32  UNL32       0.0000
   1253 O          -8.0179   41.0361   41.0290 O.2    32  UNL32       0.0000
   1254 O          -6.8604   42.2241   39.1053 O.2    32  UNL32       0.0000
   1255 O          -3.8068   41.0379   39.5127 O.2    32  UNL32       0.0000
   1256 O          -4.8583   39.7742   37.6224 O.2    32  UNL32       0.0000
   1257 F          -9.2211   39.2812   39.1702 F      32  UNL32       0.0000
   1258 F          -4.6197   37.3139   39.2502 F      32  UNL32       0.0000
   1259 F          -7.9038   39.7631   37.4784 F      32  UNL32       0.0000
   1260 F          -9.3758   41.2471   38.1861 F      32  UNL32       0.0000
   1261 F          -4.0991   38.3529   41.1145 F      32  UNL32       0.0000
   1262 F          -2.6926   38.3504   39.4235 F      32  UNL32       0.0000
   1263 S          -7.2643   40.9937   39.7906 S.O2   32  UNL32       0.0000
   1264 S          -4.7364   39.9846   39.0594 S.O2   32  UNL32       0.0000
   1265 TI        -25.1588   17.3219   37.3226 Ti      1  UNL1        0.0000
   1266 TI        -14.3283   20.2031   27.9578 Ti      1  UNL1        0.0000
   1267 TI        -21.0621   13.3857   35.5026 Ti      1  UNL1        0.0000
   1268 TI        -19.5509   22.5478   29.7296 Ti      1  UNL1        0.0000
   1269 TI        -20.5495   24.2262   27.8252 Ti      1  UNL1        0.0000
   1270 TI        -19.1739   13.1314   37.4560 Ti      1  UNL1        0.0000
   1271 TI        -24.2096   15.5860   35.4311 Ti      1  UNL1        0.0000
   1272 TI        -16.3161   20.5057   29.8052 Ti      1  UNL1        0.0000
   1273 H         -24.6569   21.2190   37.1031 H      10  UNL10       0.0000
   1274 H         -13.5195   16.2971   28.2785 H       1  UNL1        0.0000
   1275 H         -29.1187   16.5653   36.9401 H      11  UNL11       0.0000
   1276 H         -10.9462   22.2074   28.1584 H       1  UNL1        0.0000
   1277 H         -18.1983    9.0968   37.0700 H       5  UNL5        0.0000
   1278 H         -24.6080   23.6363   28.1472 H       1  UNL1        0.0000
   1279 H         -20.0550   22.5894   25.9521 H       1  UNL1        0.0000
   1280 H         -16.2038   19.9604   26.2578 H       1  UNL1        0.0000
   1281 H         -18.6640   12.4643   31.9449 H       1  UNL1        0.0000
   1282 H         -21.2744   24.3849   33.3485 H       1  UNL1        0.0000
   1283 H         -28.2822   18.9746   35.0752 H       1  UNL1        0.0000
   1284 H         -11.5736   18.1188   30.2638 H       1  UNL1        0.0000
   1285 H         -25.9811   17.5272   31.7414 H       1  UNL1        0.0000
   1286 H         -23.6496   26.0540   30.1784 H       1  UNL1        0.0000
   1287 H         -20.1572   27.3290   28.6806 H       1  UNL1        0.0000
   1288 H         -13.6774   14.2782   29.4809 H       1  UNL1        0.0000
   1289 H         -17.4583   22.2280   28.3909 H       1  UNL1        0.0000
   1290 H         -22.1428   15.2341   36.7962 H       1  UNL1        0.0000
   1291 H         -14.9392   15.0662   35.8456 H      12  UNL12       0.0000
   1292 H         -16.4203   14.5972   36.5930 H      12  UNL12       0.0000
   1293 H         -14.3650   19.4999   34.7467 H       1  UNL1        0.0000
   1294 H         -14.9348   19.8584   33.1282 H       1  UNL1        0.0000
   1295 H         -15.4280   10.1114   35.6556 H       1  UNL1        0.0000
   1296 H         -16.7071   11.2120   36.1130 H       1  UNL1        0.0000
   1297 C         -13.7503   19.4619   30.8213 C.3     1  UNL1        0.0000
   1298 C         -26.1193   17.5833   34.4755 C.3     1  UNL1        0.0000
   1299 C         -18.4816   12.3750   34.5779 C.3     1  UNL1        0.0000
   1300 C         -21.4870   24.5184   30.6889 C.3     1  UNL1        0.0000
   1301 C         -12.8543   18.8576   31.8165 C.ar    1  UNL1        0.0000
   1302 C         -27.0512   18.2083   33.4985 C.2     1  UNL1        0.0000
   1303 C         -17.5414   11.7607   33.6307 C.ar    1  UNL1        0.0000
   1304 C         -22.3768   25.1652   31.6887 C.2     1  UNL1        0.0000
   1305 C         -13.1030   18.9325   33.2229 C.ar    1  UNL1        0.0000
   1306 C         -26.8348   18.0883   32.1105 C.3     1  UNL1        0.0000
   1307 C         -16.4119   11.0004   34.0838 C.ar    1  UNL1        0.0000
   1308 C         -23.4716   25.9381   31.2438 C.3     1  UNL1        0.0000
   1309 C         -22.1224   24.9944   33.0436 C.2     1  UNL1        0.0000
   1310 C         -17.7891   11.8928   32.2468 C.ar    1  UNL1        0.0000
   1311 C         -11.7206   18.1586   31.3408 C.ar    1  UNL1        0.0000
   1312 C         -28.1514   18.9007   33.9972 C.2     1  UNL1        0.0000
   1313 C         -13.5385   16.3761   26.1344 C.ar    1  UNL1        0.0000
   1314 C         -20.0082   28.1677   26.1594 C.2     1  UNL1        0.0000
   1315 C         -11.0541   22.1393   26.0084 C.ar    1  UNL1        0.0000
   1316 C         -24.4124   23.6817   25.9890 C.2     1  UNL1        0.0000
   1317 C         -18.8042   20.2047   31.6942 C.3     1  UNL1        0.0000
   1318 C         -23.5603   13.1103   33.6123 C.2     1  UNL1        0.0000
   1319 C         -13.6744   17.8310   26.1112 C.3     1  UNL1        0.0000
   1320 C         -20.1010   26.7342   26.1219 C.2     1  UNL1        0.0000
   1321 C         -12.3519   21.5224   26.0552 C.3     1  UNL1        0.0000
   1322 C         -23.0101   24.0960   26.0134 C.2     1  UNL1        0.0000
   1323 C         -13.4992   15.7070   27.3640 C.ar    1  UNL1        0.0000
   1324 C         -24.6460   21.8074   38.0170 C.3    33  UNL33       0.0000
   1325 C         -10.3988   22.4141   27.2423 C.ar    1  UNL1        0.0000
   1326 C         -29.6802   16.3859   37.8555 C.3    34  UNL34       0.0000
   1327 C         -14.9944   15.3415   37.8700 C.2    12  UNL12       0.0000
   1328 C         -25.1096   23.4513   27.2014 C.3     1  UNL1        0.0000
   1329 C         -18.1567    8.5697   38.0191 C.2     5  UNL5        0.0000
   1330 C         -19.9945   28.9189   27.3886 C.3     1  UNL1        0.0000
   1331 N         -19.9394   28.3201   28.6268 N.3     1  UNL1        0.0000
   1332 N         -15.5734   15.1587   36.6310 N.pl3  12  UNL12       0.0000
   1333 N         -14.1839   19.5787   33.7542 N.pl3   1  UNL1        0.0000
   1334 N         -16.0809   10.8421   35.4011 N.pl3   1  UNL1        0.0000
   1335 O         -14.9266   19.8670   31.1871 O.3     1  UNL1        0.0000
   1336 O         -25.3503   16.6324   34.0773 O.3     1  UNL1        0.0000
   1337 O         -18.1001   12.4995   35.7990 O.3     1  UNL1        0.0000
   1338 O         -21.5529   24.9480   29.4893 O.3     1  UNL1        0.0000
   1339 O         -20.7166   23.5611   31.0754 O.3     1  UNL1        0.0000
   1340 O         -19.6520   12.7434   34.1724 O.3     1  UNL1        0.0000
   1341 O         -13.3384   19.5426   29.6096 O.3     1  UNL1        0.0000
   1342 O         -26.1614   18.0195   35.6753 O.3     1  UNL1        0.0000
   1343 O         -16.0109   19.2878   28.6105 O.3     1  UNL1        0.0000
   1344 O         -23.6571   17.1464   36.1756 O.3     1  UNL1        0.0000
   1345 O         -15.0721   21.5751   29.0605 O.3     1  UNL1        0.0000
   1346 O         -25.4093   15.4217   36.6683 O.3     1  UNL1        0.0000
   1347 O         -20.8028   12.2137   36.7630 O.3     1  UNL1        0.0000
   1348 O         -19.0344   24.1092   28.9911 O.3     1  UNL1        0.0000
   1349 O         -19.8489   14.4752   36.2988 O.3     1  UNL1        0.0000
   1350 O         -20.7406   22.3520   28.4737 O.3     1  UNL1        0.0000
   1351 O         -18.4316   11.3595   38.0651 O.3     1  UNL1        0.0000
   1352 O         -20.1841   26.0328   27.2171 O.2     1  UNL1        0.0000
   1353 O         -17.6294   14.1477   38.0599 O.3     1  UNL1        0.0000
   1354 O         -22.4200   24.1970   27.1570 O.2     1  UNL1        0.0000
   1355 O         -12.8912   21.2222   27.2032 O.3     1  UNL1        0.0000
   1356 O         -27.0456   17.2619   37.9910 O.3     1  UNL1        0.0000
   1357 O         -13.6868   18.4679   27.2326 O.3     1  UNL1        0.0000
   1358 O         -24.7774   19.0442   38.0723 O.3     1  UNL1        0.0000
   1359 O         -17.8191   21.6792   29.1116 O.3     1  UNL1        0.0000
   1360 O         -22.5211   14.6754   36.0926 O.3     1  UNL1        0.0000
   1361 O         -15.3650   20.4541   26.1788 O.3     1  UNL1        0.0000
   1362 O         -19.9327   23.5561   26.0121 O.3     1  UNL1        0.0000
   1363 H         -18.7340   16.3935   34.3992 H       1  UNL1        0.0000
   1364 H         -22.6339   10.6738   32.9178 H       1  UNL1        0.0000
   1365 H         -17.9014   25.4211   31.6170 H      13  UNL13       0.0000
   1366 H         -17.6106   18.1559   32.9985 H       1  UNL1        0.0000
   1367 H         -22.5498   18.2455   33.6503 H       1  UNL1        0.0000
   1368 H         -26.0942   13.2147   32.6919 H       1  UNL1        0.0000
   1369 H         -21.1939   16.4471   34.6892 H       1  UNL1        0.0000
   1370 H         -21.4208   20.0140   32.2736 H       1  UNL1        0.0000
   1371 H         -16.8084   23.2339   31.2131 H      13  UNL13       0.0000
   1372 H         -30.4294   23.4350   31.7540 H      49  UNL49       0.0000
   1373 C         -19.4512   19.1903   32.5678 C.ar    1  UNL1        0.0000
   1374 C         -20.7034   17.2197   34.0981 C.ar    1  UNL1        0.0000
   1375 C         -16.2451   24.0386   31.6861 C.2    13  UNL13       0.0000
   1376 C         -24.2912   12.0495   32.8663 C.2     1  UNL1        0.0000
   1377 C         -20.8460   19.2233   32.7511 C.ar    1  UNL1        0.0000
   1378 C         -19.3133   17.1887   33.9319 C.ar    1  UNL1        0.0000
   1379 C         -16.8643   25.2734   31.9143 C.3    13  UNL13       0.0000
   1380 C         -23.6702   10.8124   32.6170 C.3     1  UNL1        0.0000
   1381 C         -14.9068   23.8361   32.0427 C.2    13  UNL13       0.0000
   1382 C         -25.6310   12.2516   32.4885 C.3     1  UNL1        0.0000
   1383 C         -18.6864   18.1702   33.1610 C.ar    1  UNL1        0.0000
   1384 C         -21.4697   18.2345   33.5122 C.ar    1  UNL1        0.0000
   1385 O         -17.5625   20.0602   31.3994 O.3     1  UNL1        0.0000
   1386 O         -24.1897   14.1859   33.9164 O.2     1  UNL1        0.0000
   1387 O         -22.3528   12.8799   33.9741 O.2     1  UNL1        0.0000
   1388 O         -19.5216   21.1657   31.2513 O.3     1  UNL1        0.0000
   1389 N         -16.3576   25.5281   51.1632 N.pl3  36  UNL36       0.0000
   1390 N         -15.9005   24.7391   53.1482 N.pl3  36  UNL36       0.0000
   1391 C         -15.7137   24.3137   50.9806 C.2    36  UNL36       0.0000
   1392 C         -15.4260   23.8212   52.2269 C.2    36  UNL36       0.0000
   1393 C         -14.6012   25.6935   55.0359 C.3    36  UNL36       0.0000
   1394 C         -16.8291   26.4219   50.0984 C.3    36  UNL36       0.0000
   1395 C         -16.4689   25.7623   52.4826 C.3    36  UNL36       0.0000
   1396 C         -15.6824   24.7015   54.6123 C.3    36  UNL36       0.0000
   1397 H         -15.4942   23.9077   50.0013 H      36  UNL36       0.0000
   1398 H         -14.9481   22.8965   52.5288 H      36  UNL36       0.0000
   1399 H         -13.6462   25.4711   54.5432 H      36  UNL36       0.0000
   1400 H         -15.9810   26.6991   49.4632 H      36  UNL36       0.0000
   1401 H         -14.8843   26.7269   54.7988 H      36  UNL36       0.0000
   1402 H         -17.5884   25.8910   49.5120 H      36  UNL36       0.0000
   1403 H         -14.4537   25.6238   56.1220 H      36  UNL36       0.0000
   1404 H         -15.3865   23.6723   54.8565 H      36  UNL36       0.0000
   1405 H         -17.2672   27.3135   50.5574 H      36  UNL36       0.0000
   1406 H         -16.9470   26.6241   52.9308 H      36  UNL36       0.0000
   1407 H         -16.6508   24.8973   55.0889 H      36  UNL36       0.0000
   1408 N         -10.7336   32.8439   53.0019 N.3    37  UNL37       0.0000
   1409 C         -13.1377   33.2085   51.6755 C.3    37  UNL37       0.0000
   1410 C          -8.6410   31.3399   52.8604 C.3    37  UNL37       0.0000
   1411 O         -12.6525   33.9697   54.1236 O.2    37  UNL37       0.0000
   1412 O         -11.4951   35.1576   52.1999 O.2    37  UNL37       0.0000
   1413 O          -8.4414   33.9714   52.6073 O.2    37  UNL37       0.0000
   1414 O          -9.4929   32.7078   50.7170 O.2    37  UNL37       0.0000
   1415 F         -13.8557   32.2148   52.2648 F      37  UNL37       0.0000
   1416 F          -9.2543   30.2474   52.3448 F      37  UNL37       0.0000
   1417 F         -12.5384   32.6967   50.5730 F      37  UNL37       0.0000
   1418 F         -14.0104   34.1806   51.2807 F      37  UNL37       0.0000
   1419 F          -8.7338   31.2865   54.2091 F      37  UNL37       0.0000
   1420 F          -7.3272   31.2840   52.5181 F      37  UNL37       0.0000
   1421 S         -11.8989   33.9272   52.8852 S.O2   37  UNL37       0.0000
   1422 S          -9.3710   32.9181   52.1540 S.O2   37  UNL37       0.0000
   1423 TI         13.1440    1.6725   11.3360 Ti      1  UNL1        0.0000
   1424 TI         23.9745    4.5537    1.9712 Ti      1  UNL1        0.0000
   1425 TI         17.2407   -2.2637    9.5160 Ti      1  UNL1        0.0000
   1426 TI         18.7519    6.8984    3.7430 Ti      1  UNL1        0.0000
   1427 TI         17.7533    8.5767    1.8386 Ti      1  UNL1        0.0000
   1428 TI         19.1289   -2.5180   11.4694 Ti      1  UNL1        0.0000
   1429 TI         14.0932   -0.0634    9.4445 Ti      1  UNL1        0.0000
   1430 TI         21.9867    4.8563    3.8186 Ti      1  UNL1        0.0000
   1431 H          13.6459    5.5696   11.1165 H       1  UNL1        0.0000
   1432 H          24.7833    0.6477    2.2918 H       1  UNL1        0.0000
   1433 H           9.1841    0.9159   10.9535 H       1  UNL1        0.0000
   1434 H          27.3566    6.5580    2.1718 H       1  UNL1        0.0000
   1435 H          20.1045   -6.5526   11.0834 H       1  UNL1        0.0000
   1436 H          13.6948    7.9868    2.1606 H       1  UNL1        0.0000
   1437 H          18.2478    6.9399   -0.0345 H       1  UNL1        0.0000
   1438 H          22.0989    4.3110    0.2712 H       1  UNL1        0.0000
   1439 H          19.6388   -3.1852    5.9583 H       1  UNL1        0.0000
   1440 H          17.0284    8.7355    7.3619 H       1  UNL1        0.0000
   1441 H          10.0206    3.3252    9.0886 H       1  UNL1        0.0000
   1442 H          26.7292    2.4694    4.2772 H       1  UNL1        0.0000
   1443 H          12.3217    1.8778    5.7547 H       1  UNL1        0.0000
   1444 H          14.6532   10.4046    4.1918 H       1  UNL1        0.0000
   1445 H          18.1455   11.6796    2.6940 H       1  UNL1        0.0000
   1446 H          24.6254   -1.3712    3.4943 H      49  UNL49       0.0000
   1447 H          20.8445    6.5786    2.4043 H       1  UNL1        0.0000
   1448 H          16.1600   -0.4153   10.8096 H       1  UNL1        0.0000
   1449 H          23.3636   -0.5832    9.8590 H       1  UNL1        0.0000
   1450 H          21.8825   -1.0523   10.6064 H       1  UNL1        0.0000
   1451 H          23.9378    3.8504    8.7601 H       1  UNL1        0.0000
   1452 H          23.3680    4.2090    7.1416 H       1  UNL1        0.0000
   1453 H          22.8748   -5.5380    9.6690 H       1  UNL1        0.0000
   1454 H          21.5957   -4.4374   10.1264 H       1  UNL1        0.0000
   1455 C          24.5525    3.8125    4.8347 C.3     1  UNL1        0.0000
   1456 C          12.1835    1.9339    8.4889 C.3     1  UNL1        0.0000
   1457 C          19.8212   -3.2744    8.5913 C.3     1  UNL1        0.0000
   1458 C          16.8158    8.8689    4.7023 C.3     1  UNL1        0.0000
   1459 C          25.4485    3.2082    5.8299 C.ar    1  UNL1        0.0000
   1460 C          11.2515    2.5589    7.5119 C.ar    1  UNL1        0.0000
   1461 C          20.7614   -3.8888    7.6441 C.2     1  UNL1        0.0000
   1462 C          15.9259    9.5157    5.7021 C.ar    1  UNL1        0.0000
   1463 C          25.1998    3.2831    7.2363 C.ar    1  UNL1        0.0000
   1464 C          11.4679    2.4389    6.1239 C.ar    1  UNL1        0.0000
   1465 C          21.8908   -4.6491    8.0971 C.2     1  UNL1        0.0000
   1466 C          14.8312   10.2887    5.2572 C.ar    1  UNL1        0.0000
   1467 C          16.1804    9.3450    7.0570 C.ar    1  UNL1        0.0000
   1468 C          20.5137   -3.7566    6.2602 C.3     1  UNL1        0.0000
   1469 C          26.5822    2.5092    5.3542 C.ar    1  UNL1        0.0000
   1470 C          10.1514    3.2513    8.0106 C.ar    1  UNL1        0.0000
   1471 C          24.7643    0.7267    0.1477 C.2     1  UNL1        0.0000
   1472 C          18.2946   12.5183    0.1728 C.2     1  UNL1        0.0000
   1473 C          27.2487    6.4898    0.0217 C.2     1  UNL1        0.0000
   1474 C          13.8904    8.0323    0.0024 C.2     1  UNL1        0.0000
   1475 C          19.4986    4.5553    5.7075 C.3     1  UNL1        0.0000
   1476 C          14.7425   -2.5391    7.6257 C.2     1  UNL1        0.0000
   1477 C          24.6284    2.1816    0.1245 C.2     1  UNL1        0.0000
   1478 C          18.2018   11.0848    0.1353 C.2     1  UNL1        0.0000
   1479 C          25.9509    5.8730    0.0686 C.2     1  UNL1        0.0000
   1480 C          15.2927    8.4466    0.0268 C.2     1  UNL1        0.0000
   1481 C          24.8036    0.0576    1.3774 C.3     1  UNL1        0.0000
   1482 C          13.6568    6.1580   12.0304 C.ar    1  UNL1        0.0000
   1483 C          27.9040    6.7646    1.2557 C.2     1  UNL1        0.0000
   1484 C           8.6226    0.7365   11.8689 C.ar    1  UNL1        0.0000
   1485 C          23.3084   -0.3079   11.8834 C.ar    1  UNL1        0.0000
   1486 C          13.1932    7.8019    1.2148 C.2     1  UNL1        0.0000
   1487 C          20.1461   -7.0797   12.0325 C.3     1  UNL1        0.0000
   1488 C          18.3083   13.2695    1.4020 C.2     1  UNL1        0.0000
   1489 N          18.3634   12.6707    2.6402 N.pl3   1  UNL1        0.0000
   1490 N          22.7293   -0.4907   10.6444 N.pl3   1  UNL1        0.0000
   1491 N          24.1189    3.9293    7.7676 N.pl3   1  UNL1        0.0000
   1492 N          22.2218   -4.8073    9.4145 N.pl3   1  UNL1        0.0000
   1493 O          23.3762    4.2176    5.2005 O.3     1  UNL1        0.0000
   1494 O          12.9524    0.9830    8.0907 O.3     1  UNL1        0.0000
   1495 O          20.2026   -3.1499    9.8124 O.3     1  UNL1        0.0000
   1496 O          16.7499    9.2986    3.5027 O.3     1  UNL1        0.0000
   1497 O          17.5862    7.9117    5.0888 O.3     1  UNL1        0.0000
   1498 O          18.6508   -2.9060    8.1857 O.3     1  UNL1        0.0000
   1499 O          24.9644    3.8932    3.6229 O.3     1  UNL1        0.0000
   1500 O          12.1414    2.3701    9.6886 O.3     1  UNL1        0.0000
   1501 O          22.2919    3.6384    2.6239 O.3     1  UNL1        0.0000
   1502 O          14.6457    1.4970   10.1890 O.3     1  UNL1        0.0000
   1503 O          23.2307    5.9256    3.0739 O.3     1  UNL1        0.0000
   1504 O          12.8935   -0.2277   10.6817 O.3     1  UNL1        0.0000
   1505 O          17.5000   -3.4357   10.7764 O.3     1  UNL1        0.0000
   1506 O          19.2684    8.4597    3.0045 O.3     1  UNL1        0.0000
   1507 O          18.4539   -1.1742   10.3122 O.3     1  UNL1        0.0000
   1508 O          17.5622    6.7026    2.4870 O.3     1  UNL1        0.0000
   1509 O          19.8712   -4.2899   12.0785 O.2     1  UNL1        0.0000
   1510 O          18.1187   10.3834    1.2305 O.2     1  UNL1        0.0000
   1511 O          20.6734   -1.5017   12.0733 O.3     1  UNL1        0.0000
   1512 O          15.8828    8.5476    1.1704 O.2     1  UNL1        0.0000
   1513 O          25.4115    5.5728    1.2166 O.2     1  UNL1        0.0000
   1514 O          11.2572    1.6124   12.0044 O.3     1  UNL1        0.0000
   1515 O          24.6160    2.8185    1.2460 O.2     1  UNL1        0.0000
   1516 O          13.5254    3.3948   12.0857 O.3     1  UNL1        0.0000
   1517 O          20.4837    6.0298    3.1250 O.3     1  UNL1        0.0000
   1518 O          15.7817   -0.9740   10.1060 O.3     1  UNL1        0.0000
   1519 O          22.9378    4.8047    0.1922 O.3     1  UNL1        0.0000
   1520 O          18.3701    7.9067    0.0255 O.3     1  UNL1        0.0000
   1521 H          19.5688    0.7441    8.4126 H       1  UNL1        0.0000
   1522 H          15.6689   -4.9756    6.9312 H       1  UNL1        0.0000
   1523 H          20.4014    9.7717    5.6304 H       1  UNL1        0.0000
   1524 H          20.6922    2.5065    7.0119 H       1  UNL1        0.0000
   1525 H          15.7530    2.5961    7.6637 H       1  UNL1        0.0000
   1526 H          12.2086   -2.4347    6.7053 H       1  UNL1        0.0000
   1527 H          17.1089    0.7977    8.7026 H       1  UNL1        0.0000
   1528 H          16.8820    4.3646    6.2870 H       1  UNL1        0.0000
   1529 H          21.4943    7.5845    5.2265 H       1  UNL1        0.0000
   1530 H           7.8734    7.7855    5.7674 H       1  UNL1        0.0000
   1531 C          18.8516    3.5409    6.5812 C.ar    1  UNL1        0.0000
   1532 C          17.5994    1.5702    8.1115 C.ar    1  UNL1        0.0000
   1533 C          22.0577    8.3892    5.6995 C.ar    1  UNL1        0.0000
   1534 C          14.0116   -3.5999    6.8797 C.2     1  UNL1        0.0000
   1535 C          17.4568    3.5739    6.7645 C.ar    1  UNL1        0.0000
   1536 C          18.9895    1.5393    7.9453 C.ar    1  UNL1        0.0000
   1537 C          21.4385    9.6240    5.9276 C.ar    1  UNL1        0.0000
   1538 C          14.6326   -4.8370    6.6303 C.3     1  UNL1        0.0000
   1539 C          23.3959    8.1866    6.0561 C.ar    1  UNL1        0.0000
   1540 C          12.6718   -3.3979    6.5019 C.3     1  UNL1        0.0000
   1541 C          19.6164    2.5208    7.1744 C.ar    1  UNL1        0.0000
   1542 C          16.8331    2.5851    7.5256 C.ar    1  UNL1        0.0000
   1543 O          20.7402    4.4108    5.4128 O.3     1  UNL1        0.0000
   1544 O          14.1131   -1.4635    7.9298 O.2     1  UNL1        0.0000
   1545 O          15.9500   -2.7695    7.9875 O.2     1  UNL1        0.0000
   1546 O          18.7812    5.5163    5.2647 O.3     1  UNL1        0.0000
   1547 N          21.9452    9.8786   25.1766 N.pl3  39  UNL39       0.0000
   1548 N          22.4023    9.0897   27.1616 N.pl3  39  UNL39       0.0000
   1549 C          22.5891    8.6643   24.9940 C.2    39  UNL39       0.0000
   1550 C          22.8768    8.1717   26.2403 C.2    39  UNL39       0.0000
   1551 C          23.7016   10.0441   29.0493 C.3    39  UNL39       0.0000
   1552 C          21.4737   10.7725   24.1118 C.3    39  UNL39       0.0000
   1553 C          21.8338   10.1129   26.4960 C.3    39  UNL39       0.0000
   1554 C          22.6204    9.0521   28.6257 C.3    39  UNL39       0.0000
   1555 H          22.8086    8.2582   24.0146 H      39  UNL39       0.0000
   1556 H          23.3547    7.2471   26.5422 H      39  UNL39       0.0000
   1557 H          24.6566    9.8217   28.5566 H      39  UNL39       0.0000
   1558 H          22.3218   11.0497   23.4766 H      39  UNL39       0.0000
   1559 H          23.4185   11.0775   28.8122 H      39  UNL39       0.0000
   1560 H          20.7144   10.2416   23.5254 H      39  UNL39       0.0000
   1561 H          23.8491    9.9744   30.1354 H      39  UNL39       0.0000
   1562 H          22.9163    8.0229   28.8699 H      39  UNL39       0.0000
   1563 H          21.0356   11.6641   24.5708 H      39  UNL39       0.0000
   1564 H          21.3558   10.9747   26.9442 H      39  UNL39       0.0000
   1565 H          21.6520    9.2479   29.1023 H      39  UNL39       0.0000
   1566 N          27.5692   17.1945   27.0153 N.3    40  UNL40       0.0000
   1567 C          25.1651   17.5591   25.6889 C.3    40  UNL40       0.0000
   1568 C          29.6617   15.6905   26.8738 C.3    40  UNL40       0.0000
   1569 O          25.6503   18.3203   28.1370 O.2    40  UNL40       0.0000
   1570 O          26.8077   19.5082   26.2133 O.2    40  UNL40       0.0000
   1571 O          29.8614   18.3220   26.6206 O.2    40  UNL40       0.0000
   1572 O          28.8099   17.0584   24.7304 O.2    40  UNL40       0.0000
   1573 F          24.4471   16.5654   26.2782 F      40  UNL40       0.0000
   1574 F          29.0484   14.5980   26.3582 F      40  UNL40       0.0000
   1575 F          25.7643   17.0473   24.5864 F      40  UNL40       0.0000
   1576 F          24.2924   18.5312   25.2941 F      40  UNL40       0.0000
   1577 F          29.5690   15.6371   28.2225 F      40  UNL40       0.0000
   1578 F          30.9756   15.6346   26.5315 F      40  UNL40       0.0000
   1579 S          26.4039   18.2778   26.8986 S.O2   40  UNL40       0.0000
   1580 S          28.9318   17.2687   26.1674 S.O2   40  UNL40       0.0000
   1581 TI          8.5094   -5.3939   24.4306 Ti      1  UNL1        0.0000
   1582 TI         19.3398   -2.5127   15.0658 Ti      1  UNL1        0.0000
   1583 TI         12.6060   -9.3301   22.6106 Ti      1  UNL1        0.0000
   1584 TI         14.1172   -0.1680   16.8376 Ti      1  UNL1        0.0000
   1585 TI         13.1187    1.5103   14.9332 Ti      1  UNL1        0.0000
   1586 TI         14.4942   -9.5845   24.5640 Ti      1  UNL1        0.0000
   1587 TI          9.4585   -7.1298   22.5391 Ti      1  UNL1        0.0000
   1588 TI         17.3520   -2.2102   16.9132 Ti      1  UNL1        0.0000
   1589 H           9.0112   -1.4969   24.2111 H       1  UNL1        0.0000
   1590 H          20.1486   -6.4188   15.3865 H       1  UNL1        0.0000
   1591 H           4.5495   -6.1506   24.0481 H       1  UNL1        0.0000
   1592 H          22.7220   -0.5084   15.2664 H       1  UNL1        0.0000
   1593 H          15.4698  -13.6190   24.1780 H       1  UNL1        0.0000
   1594 H           9.0601    0.9204   15.2552 H       1  UNL1        0.0000
   1595 H          13.6131   -0.1265   13.0601 H       1  UNL1        0.0000
   1596 H          17.4643   -2.7554   13.3658 H       1  UNL1        0.0000
   1597 H          15.0041  -10.2516   19.0529 H       1  UNL1        0.0000
   1598 H          12.3938    1.6690   20.4565 H       1  UNL1        0.0000
   1599 H           5.3859   -3.7412   22.1832 H       1  UNL1        0.0000
   1600 H          22.0946   -4.5971   17.3718 H       1  UNL1        0.0000
   1601 H           7.6870   -5.1886   18.8494 H       1  UNL1        0.0000
   1602 H          10.0186    3.3382   17.2864 H       1  UNL1        0.0000
   1603 H          13.5109    4.6131   15.7886 H       1  UNL1        0.0000
   1604 H          19.9908   -8.4376   16.5889 H      49  UNL49       0.0000
   1605 H          16.2099   -0.4879   15.4989 H       1  UNL1        0.0000
   1606 H          11.5253   -7.4817   23.9042 H       1  UNL1        0.0000
   1607 H          18.7290   -7.6496   22.9536 H       1  UNL1        0.0000
   1608 H          17.2479   -8.1187   23.7010 H       1  UNL1        0.0000
   1609 H          19.3031   -3.2160   21.8547 H       1  UNL1        0.0000
   1610 H          18.7334   -2.8574   20.2362 H       1  UNL1        0.0000
   1611 H          18.2402  -12.6045   22.7636 H       1  UNL1        0.0000
   1612 H          16.9610  -11.5039   23.2210 H       1  UNL1        0.0000
   1613 C          19.9179   -3.2540   17.9293 C.3     1  UNL1        0.0000
   1614 C           7.5488   -5.1326   21.5835 C.3     1  UNL1        0.0000
   1615 C          15.1865  -10.3408   21.6859 C.3     1  UNL1        0.0000
   1616 C          12.1811    1.8025   17.7969 C.3     1  UNL1        0.0000
   1617 C          20.8139   -3.8583   18.9245 C.ar    1  UNL1        0.0000
   1618 C           6.6169   -4.5075   20.6065 C.ar    1  UNL1        0.0000
   1619 C          16.1267  -10.9552   20.7387 C.2     1  UNL1        0.0000
   1620 C          11.2913    2.4493   18.7967 C.ar    1  UNL1        0.0000
   1621 C          20.5651   -3.7834   20.3309 C.ar    1  UNL1        0.0000
   1622 C           6.8333   -4.6275   19.2185 C.ar    1  UNL1        0.0000
   1623 C          17.2562  -11.7155   21.1917 C.2     1  UNL1        0.0000
   1624 C          10.1966    3.2223   18.3518 C.ar    1  UNL1        0.0000
   1625 C          11.5458    2.2785   20.1516 C.ar    1  UNL1        0.0000
   1626 C          15.8790  -10.8231   19.3548 C.3     1  UNL1        0.0000
   1627 C          21.9476   -4.5573   18.4488 C.ar    1  UNL1        0.0000
   1628 C           5.5167   -3.8151   21.1052 C.ar    1  UNL1        0.0000
   1629 C          20.1296   -6.3397   13.2424 C.2     1  UNL1        0.0000
   1630 C          13.6599    5.4519   13.2674 C.ar    1  UNL1        0.0000
   1631 C          22.6141   -0.5766   13.1164 C.ar    1  UNL1        0.0000
   1632 C           9.2557    0.9658   13.0970 C.ar    1  UNL1        0.0000
   1633 C          14.8639   -2.5112   18.8022 C.3     1  UNL1        0.0000
   1634 C          10.1079   -9.6056   20.7203 C.2     1  UNL1        0.0000
   1635 C          19.9938   -4.8849   13.2192 C.2     1  UNL1        0.0000
   1636 C          13.5672    4.0184   13.2299 C.3     1  UNL1        0.0000
   1637 C          21.3162   -1.1934   13.1632 C.3     1  UNL1        0.0000
   1638 C          10.6580    1.3802   13.1214 C.3     1  UNL1        0.0000
   1639 C          20.1690   -7.0088   14.4720 C.3     1  UNL1        0.0000
   1640 C           9.0222   -0.9085   25.1250 C.ar    1  UNL1        0.0000
   1641 C          23.2694   -0.3018   14.3503 C.ar    1  UNL1        0.0000
   1642 C           3.9880   -6.3299   24.9635 C.ar    1  UNL1        0.0000
   1643 C          18.6737   -7.3743   24.9780 C.ar    1  UNL1        0.0000
   1644 C           8.5585    0.7354   14.3094 C.ar    1  UNL1        0.0000
   1645 C          15.5115  -14.1462   25.1271 C.3     1  UNL1        0.0000
   1646 C          13.6737    6.2031   14.4966 C.ar    1  UNL1        0.0000
   1647 N          13.7287    5.6042   15.7348 N.pl3   1  UNL1        0.0000
   1648 N          18.0947   -7.5571   23.7390 N.pl3   1  UNL1        0.0000
   1649 N          19.4842   -3.1371   20.8622 N.pl3   1  UNL1        0.0000
   1650 N          17.5872  -11.8737   22.5091 N.pl3   1  UNL1        0.0000
   1651 O          18.7415   -2.8489   18.2951 O.3     1  UNL1        0.0000
   1652 O           8.3178   -6.0834   21.1853 O.3     1  UNL1        0.0000
   1653 O          15.5680  -10.2164   22.9070 O.3     1  UNL1        0.0000
   1654 O          12.1152    2.2322   16.5973 O.3     1  UNL1        0.0000
   1655 O          12.9516    0.8453   18.1834 O.3     1  UNL1        0.0000
   1656 O          14.0161   -9.9724   21.2804 O.3     1  UNL1        0.0000
   1657 O          20.3297   -3.1732   16.7175 O.3     1  UNL1        0.0000
   1658 O           7.5068   -4.6963   22.7833 O.3     1  UNL1        0.0000
   1659 O          17.6572   -3.4281   15.7185 O.3     1  UNL1        0.0000
   1660 O          10.0110   -5.5695   23.2836 O.3     1  UNL1        0.0000
   1661 O          18.5960   -1.1408   16.1685 O.3     1  UNL1        0.0000
   1662 O           8.2588   -7.2942   23.7763 O.3     1  UNL1        0.0000
   1663 O          12.8653  -10.5021   23.8710 O.3     1  UNL1        0.0000
   1664 O          14.6338    1.3933   16.0991 O.3     1  UNL1        0.0000
   1665 O          13.8193   -8.2406   23.4068 O.3     1  UNL1        0.0000
   1666 O          12.9275   -0.3638   15.5817 O.3     1  UNL1        0.0000
   1667 O          15.2366  -11.3563   25.1731 O.2     1  UNL1        0.0000
   1668 O          13.4840    3.3169   14.3251 O.3     1  UNL1        0.0000
   1669 O          16.0387   -8.5682   25.1679 O.3     1  UNL1        0.0000
   1670 O          11.2481    1.4812   14.2650 O.3     1  UNL1        0.0000
   1671 O          20.7769   -1.4936   14.3112 O.3     1  UNL1        0.0000
   1672 O           6.6226   -5.4540   25.0990 O.3     1  UNL1        0.0000
   1673 O          19.9813   -4.2479   14.3406 O.2     1  UNL1        0.0000
   1674 O           8.8908   -3.6716   25.1803 O.3     1  UNL1        0.0000
   1675 O          15.8490   -1.0366   16.2196 O.3     1  UNL1        0.0000
   1676 O          11.1471   -8.0404   23.2006 O.3     1  UNL1        0.0000
   1677 O          18.3031   -2.2617   13.2868 O.3     1  UNL1        0.0000
   1678 O          13.7355    0.8403   13.1201 O.3     1  UNL1        0.0000
   1679 H          14.9342   -6.3224   21.5072 H       1  UNL1        0.0000
   1680 H          11.0342  -12.0420   20.0258 H       1  UNL1        0.0000
   1681 H          15.7667    2.7053   18.7250 H       1  UNL1        0.0000
   1682 H          16.0575   -4.5600   20.1065 H       1  UNL1        0.0000
   1683 H          11.1183   -4.4704   20.7583 H       1  UNL1        0.0000
   1684 H           7.5740   -9.5011   19.7999 H       1  UNL1        0.0000
   1685 H          12.4743   -6.2687   21.7972 H       1  UNL1        0.0000
   1686 H          12.2473   -2.7018   19.3816 H       1  UNL1        0.0000
   1687 H          16.8597    0.5180   18.3211 H       1  UNL1        0.0000
   1688 H           3.2388    0.7191   18.8620 H       1  UNL1        0.0000
   1689 C          14.2170   -3.5255   19.6758 C.ar    1  UNL1        0.0000
   1690 C          12.9648   -5.4962   21.2061 C.ar    1  UNL1        0.0000
   1691 C          17.4231    1.3228   18.7941 C.ar    1  UNL1        0.0000
   1692 C           9.3769  -10.6664   19.9743 C.2     1  UNL1        0.0000
   1693 C          12.8221   -3.4926   19.8591 C.ar    1  UNL1        0.0000
   1694 C          14.3548   -5.5272   21.0399 C.ar    1  UNL1        0.0000
   1695 C          16.8038    2.5576   19.0222 C.ar    1  UNL1        0.0000
   1696 C           9.9979  -11.9035   19.7250 C.3     1  UNL1        0.0000
   1697 C          18.7613    1.1202   19.1507 C.ar    1  UNL1        0.0000
   1698 C           8.0372  -10.4643   19.5965 C.3     1  UNL1        0.0000
   1699 C          14.9817   -4.5457   20.2690 C.ar    1  UNL1        0.0000
   1700 C          12.1985   -4.4813   20.6202 C.ar    1  UNL1        0.0000
   1701 O          16.1056   -2.6556   18.5074 O.3     1  UNL1        0.0000
   1702 O           9.4785   -8.5299   21.0244 O.2     1  UNL1        0.0000
   1703 O          11.3154   -9.8359   21.0821 O.2     1  UNL1        0.0000
   1704 O          14.1466   -1.5502   18.3593 O.3     1  UNL1        0.0000
   1705 N          17.3106    2.8122   38.2712 N.pl3  42  UNL42       0.0000
   1706 N          17.7676    2.0233   40.2562 N.pl3  42  UNL42       0.0000
   1707 C          17.9544    1.5979   38.0886 C.2    42  UNL42       0.0000
   1708 C          18.2421    1.1053   39.3349 C.2    42  UNL42       0.0000
   1709 C          19.0669    2.9777   42.1439 C.3    42  UNL42       0.0000
   1710 C          16.8391    3.7061   37.2064 C.3    42  UNL42       0.0000
   1711 C          17.1992    3.0464   39.5906 C.3    42  UNL42       0.0000
   1712 C          17.9857    1.9857   41.7203 C.3    42  UNL42       0.0000
   1713 H          18.1740    1.1918   37.1093 H      42  UNL42       0.0000
   1714 H          18.7201    0.1807   39.6368 H      42  UNL42       0.0000
   1715 H          20.0220    2.7553   41.6512 H      42  UNL42       0.0000
   1716 H          17.6872    3.9833   36.5712 H      42  UNL42       0.0000
   1717 H          18.7838    4.0110   41.9068 H      42  UNL42       0.0000
   1718 H          16.0797    3.1752   36.6200 H      42  UNL42       0.0000
   1719 H          19.2144    2.9079   43.2300 H      42  UNL42       0.0000
   1720 H          18.2817    0.9565   41.9645 H      42  UNL42       0.0000
   1721 H          16.4010    4.5977   37.6654 H      42  UNL42       0.0000
   1722 H          16.7211    3.9082   40.0388 H      42  UNL42       0.0000
   1723 H          17.0174    2.1815   42.1969 H      42  UNL42       0.0000
   1724 N          22.9346   10.1281   40.1099 N.3    43  UNL43       0.0000
   1725 C          20.5304   10.4927   38.7835 C.3    43  UNL43       0.0000
   1726 C          25.0271    8.6241   39.9684 C.3    43  UNL43       0.0000
   1727 O          21.0156   11.2538   41.2316 O.2    43  UNL43       0.0000
   1728 O          22.1731   12.4418   39.3079 O.2    43  UNL43       0.0000
   1729 O          25.2267   11.2556   39.7153 O.2    43  UNL43       0.0000
   1730 O          24.1752    9.9919   37.8250 O.2    43  UNL43       0.0000
   1731 F          19.8124    9.4989   39.3728 F      43  UNL43       0.0000
   1732 F          24.4138    7.5316   39.4528 F      43  UNL43       0.0000
   1733 F          21.1297    9.9808   37.6810 F      43  UNL43       0.0000
   1734 F          19.6577   11.4648   38.3887 F      43  UNL43       0.0000
   1735 F          24.9344    8.5706   41.3171 F      43  UNL43       0.0000
   1736 F          26.3409    8.5681   39.6261 F      43  UNL43       0.0000
   1737 S          21.7692   11.2114   39.9932 S.O2   43  UNL43       0.0000
   1738 S          24.2971   10.2023   39.2620 S.O2   43  UNL43       0.0000
   1739 TI          3.8747  -12.4604   37.5252 Ti      1  UNL1        0.0000
   1740 TI         14.7052   -9.5792   28.1604 Ti      1  UNL1        0.0000
   1741 TI          7.9714  -16.3966   35.7052 Ti      1  UNL1        0.0000
   1742 TI          9.4826   -7.2344   29.9322 Ti      1  UNL1        0.0000
   1743 TI          8.4840   -5.5561   28.0278 Ti      1  UNL1        0.0000
   1744 TI          9.8596  -16.6509   37.6586 Ti      1  UNL1        0.0000
   1745 TI          4.8239  -14.1963   35.6337 Ti      1  UNL1        0.0000
   1746 TI         12.7174   -9.2766   30.0078 Ti      1  UNL1        0.0000
   1747 H           4.3766   -8.5633   37.3057 H      14  UNL14       0.0000
   1748 H          15.5140  -13.4852   28.4811 H       1  UNL1        0.0000
   1749 H          -0.0852  -13.2170   37.1427 H       3  UNL3        0.0000
   1750 H          18.0873   -7.5749   28.3610 H       1  UNL1        0.0000
   1751 H          10.8352  -20.6855   37.2726 H      16  UNL16       0.0000
   1752 H           4.4255   -6.1460   28.3498 H       1  UNL1        0.0000
   1753 H           8.9785   -7.1929   26.1547 H       1  UNL1        0.0000
   1754 H          12.8297   -9.8219   26.4604 H       1  UNL1        0.0000
   1755 H          10.3695  -17.3180   32.1475 H       1  UNL1        0.0000
   1756 H           7.7591   -5.3974   33.5511 H       1  UNL1        0.0000
   1757 H           0.7513  -10.8076   35.2778 H       1  UNL1        0.0000
   1758 H          17.4599  -11.6635   30.4664 H       1  UNL1        0.0000
   1759 H           3.0524  -12.2551   31.9440 H       1  UNL1        0.0000
   1760 H           5.3839   -3.7283   30.3810 H       1  UNL1        0.0000
   1761 H           8.8763   -2.4533   28.8833 H       1  UNL1        0.0000
   1762 H          15.3561  -15.5041   29.6835 H      49  UNL49       0.0000
   1763 H          11.5752   -7.5543   28.5935 H       1  UNL1        0.0000
   1764 H           6.8907  -14.5482   36.9988 H       1  UNL1        0.0000
   1765 H          14.0943  -14.7161   36.0482 H      15  UNL15       0.0000
   1766 H          12.6132  -15.1851   36.7956 H      15  UNL15       0.0000
   1767 H          14.6685  -10.2824   34.9493 H       1  UNL1        0.0000
   1768 H          14.0987   -9.9238   33.3308 H       1  UNL1        0.0000
   1769 H          13.6055  -19.6709   35.8582 H       1  UNL1        0.0000
   1770 H          12.3264  -18.5703   36.3156 H       1  UNL1        0.0000
   1771 C          15.2832  -10.3204   31.0239 C.3     1  UNL1        0.0000
   1772 C           2.9142  -12.1990   34.6782 C.3     1  UNL1        0.0000
   1773 C          10.5519  -17.4073   34.7805 C.3     1  UNL1        0.0000
   1774 C           7.5465   -5.2639   30.8915 C.3     1  UNL1        0.0000
   1775 C          16.1792  -10.9247   32.0191 C.ar    1  UNL1        0.0000
   1776 C           1.9823  -11.5740   33.7011 C.ar    1  UNL1        0.0000
   1777 C          11.4921  -18.0216   33.8333 C.2     1  UNL1        0.0000
   1778 C           6.6566   -4.6171   31.8913 C.ar    1  UNL1        0.0000
   1779 C          15.9305  -10.8498   33.4255 C.ar    1  UNL1        0.0000
   1780 C           2.1986  -11.6940   32.3131 C.ar    1  UNL1        0.0000
   1781 C          12.6215  -18.7819   34.2864 C.2     1  UNL1        0.0000
   1782 C           5.5619   -3.8442   31.4464 C.ar    1  UNL1        0.0000
   1783 C           6.9111   -4.7879   33.2462 C.ar    1  UNL1        0.0000
   1784 C          11.2444  -17.8895   32.4494 C.3     1  UNL1        0.0000
   1785 C          17.3129  -11.6237   31.5434 C.ar    1  UNL1        0.0000
   1786 C           0.8821  -10.8816   34.1998 C.ar    1  UNL1        0.0000
   1787 C          15.4950  -13.4061   26.3370 C.2     1  UNL1        0.0000
   1788 C           9.0253   -1.6146   26.3620 C.ar    1  UNL1        0.0000
   1789 C          17.9794   -7.6430   26.2110 C.ar    1  UNL1        0.0000
   1790 C           4.6211   -6.1006   26.1916 C.ar    1  UNL1        0.0000
   1791 C          10.2293   -9.5776   31.8968 C.3     1  UNL1        0.0000
   1792 C           5.4732  -16.6720   33.8149 C.2     1  UNL1        0.0000
   1793 C          15.3591  -11.9513   26.3138 C.2     1  UNL1        0.0000
   1794 C           8.9325   -3.0481   26.3245 C.3     1  UNL1        0.0000
   1795 C          16.6816   -8.2599   26.2578 C.3     1  UNL1        0.0000
   1796 C           6.0234   -5.6863   26.2160 C.3     1  UNL1        0.0000
   1797 C          15.5343  -14.0753   27.5666 C.3     1  UNL1        0.0000
   1798 C           4.3875   -7.9749   38.2196 C.2    14  UNL14       0.0000
   1799 C          18.6347   -7.3682   27.4449 C.ar    1  UNL1        0.0000
   1800 C          -0.6467  -13.3964   38.0581 C.2     3  UNL3        0.0000
   1801 C          14.0391  -14.4407   38.0726 C.2    15  UNL15       0.0000
   1802 C           3.9239   -6.3310   27.4040 C.ar    1  UNL1        0.0000
   1803 C          10.8768  -21.2126   38.2217 C.3    45  UNL45       0.0000
   1804 C           9.0390   -0.8634   27.5913 C.ar    1  UNL1        0.0000
   1805 N           9.0941   -1.4622   28.8294 N.pl3   1  UNL1        0.0000
   1806 N          13.4600  -14.6236   36.8336 N.pl3  15  UNL15       0.0000
   1807 N          14.8496  -10.2036   33.9568 N.pl3   1  UNL1        0.0000
   1808 N          12.9526  -18.9402   35.6038 N.pl3   1  UNL1        0.0000
   1809 O          14.1069   -9.9153   31.3897 O.3     1  UNL1        0.0000
   1810 O           3.6832  -13.1499   34.2799 O.3     1  UNL1        0.0000
   1811 O          10.9334  -17.2828   36.0016 O.3     1  UNL1        0.0000
   1812 O           7.4806   -4.8343   29.6919 O.3     1  UNL1        0.0000
   1813 O           8.3169   -6.2211   31.2780 O.3     1  UNL1        0.0000
   1814 O           9.3815  -17.0388   34.3750 O.3     1  UNL1        0.0000
   1815 O          15.6951  -10.2396   29.8122 O.3     1  UNL1        0.0000
   1816 O           2.8721  -11.7627   35.8779 O.3     1  UNL1        0.0000
   1817 O          13.0226  -10.4945   28.8131 O.3     1  UNL1        0.0000
   1818 O           5.3764  -12.6359   36.3782 O.3     1  UNL1        0.0000
   1819 O          13.9614   -8.2072   29.2631 O.3     1  UNL1        0.0000
   1820 O           3.6242  -14.3606   36.8709 O.3     1  UNL1        0.0000
   1821 O           8.2307  -17.5685   36.9656 O.3     1  UNL1        0.0000
   1822 O           9.9991   -5.6731   29.1937 O.3     1  UNL1        0.0000
   1823 O           9.1846  -15.3070   36.5014 O.3     1  UNL1        0.0000
   1824 O           8.2929   -7.4302   28.6763 O.3     1  UNL1        0.0000
   1825 O          10.6019  -18.4228   38.2677 O.3     1  UNL1        0.0000
   1826 O           8.8494   -3.7495   27.4197 O.3     1  UNL1        0.0000
   1827 O          11.4041  -15.6346   38.2626 O.3     1  UNL1        0.0000
   1828 O           6.6135   -5.5852   27.3596 O.3     1  UNL1        0.0000
   1829 O          16.1423   -8.5600   27.4058 O.3     1  UNL1        0.0000
   1830 O           1.9879  -12.5204   38.1936 O.3     1  UNL1        0.0000
   1831 O          15.3467  -11.3144   27.4352 O.2     1  UNL1        0.0000
   1832 O           4.2561  -10.7381   38.2749 O.3     1  UNL1        0.0000
   1833 O          11.2144   -8.1031   29.3142 O.3     1  UNL1        0.0000
   1834 O           6.5124  -15.1069   36.2952 O.3     1  UNL1        0.0000
   1835 O          13.6685   -9.3282   26.3814 O.3     1  UNL1        0.0000
   1836 O           9.1008   -6.2261   26.2147 O.3     1  UNL1        0.0000
   1837 H          10.2995  -13.3888   34.6018 H       1  UNL1        0.0000
   1838 H           6.3996  -19.1085   33.1204 H       1  UNL1        0.0000
   1839 H          11.1321   -4.3611   31.8197 H       1  UNL1        0.0000
   1840 H          11.4229  -11.6264   33.2011 H       1  UNL1        0.0000
   1841 H           6.4837  -11.5368   33.8530 H       1  UNL1        0.0000
   1842 H           2.9393  -16.5676   32.8945 H       1  UNL1        0.0000
   1843 H           7.8396  -13.3352   34.8918 H       1  UNL1        0.0000
   1844 H           7.6127   -9.7683   32.4762 H       1  UNL1        0.0000
   1845 H          12.2251   -6.5484   31.4157 H       1  UNL1        0.0000
   1846 H          -1.3959   -6.3473   31.9566 H       1  UNL1        0.0000
   1847 C           9.5823  -10.5919   32.7704 C.ar    1  UNL1        0.0000
   1848 C           8.3301  -12.5626   34.3007 C.ar    1  UNL1        0.0000
   1849 C          12.7884   -5.7436   31.8887 C.ar    1  UNL1        0.0000
   1850 C           4.7423  -17.7328   33.0689 C.2     1  UNL1        0.0000
   1851 C           8.1875  -10.5590   32.9537 C.ar    1  UNL1        0.0000
   1852 C           9.7202  -12.5936   34.1345 C.ar    1  UNL1        0.0000
   1853 C          12.1692   -4.5089   32.1169 C.ar    1  UNL1        0.0000
   1854 C           5.3633  -18.9699   32.8196 C.3     1  UNL1        0.0000
   1855 C          14.1267   -5.9462   32.2453 C.ar    1  UNL1        0.0000
   1856 C           3.4025  -17.5307   32.6912 C.3     1  UNL1        0.0000
   1857 C          10.3471  -11.6121   33.3636 C.ar    1  UNL1        0.0000
   1858 C           7.5638  -11.5478   33.7149 C.ar    1  UNL1        0.0000
   1859 O          11.4709   -9.7220   31.6020 O.3     1  UNL1        0.0000
   1860 O           4.8438  -15.5964   34.1190 O.2     1  UNL1        0.0000
   1861 O           6.6807  -16.9023   34.1767 O.2     1  UNL1        0.0000
   1862 O           9.5119   -8.6166   31.4539 O.3     1  UNL1        0.0000
   1863 N          12.6759   -4.2542   51.3658 N.pl3  46  UNL46       0.0000
   1864 N          13.1330   -5.0431   53.3508 N.pl3  46  UNL46       0.0000
   1865 C          13.3198   -5.4686   51.1832 C.2    46  UNL46       0.0000
   1866 C          13.6075   -5.9611   52.4295 C.2    46  UNL46       0.0000
   1867 C          14.4323   -4.0888   55.2385 C.3    46  UNL46       0.0000
   1868 C          12.2044   -3.3604   50.3010 C.3    46  UNL46       0.0000
   1869 C          12.5645   -4.0200   52.6852 C.3    46  UNL46       0.0000
   1870 C          13.3511   -5.0808   54.8150 C.3    46  UNL46       0.0000
   1871 H          13.5393   -5.8746   50.2039 H      46  UNL46       0.0000
   1872 H          14.0854   -6.8858   52.7314 H      46  UNL46       0.0000
   1873 H          15.3873   -4.3112   54.7458 H      46  UNL46       0.0000
   1874 H          13.0525   -3.0832   49.6658 H      46  UNL46       0.0000
   1875 H          14.1492   -3.0554   55.0014 H      46  UNL46       0.0000
   1876 H          11.4451   -3.8913   49.7146 H      46  UNL46       0.0000
   1877 H          14.5798   -4.1585   56.3246 H      46  UNL46       0.0000
   1878 H          13.6470   -6.1100   55.0591 H      46  UNL46       0.0000
   1879 H          11.7663   -2.4688   50.7600 H      46  UNL46       0.0000
   1880 H          12.0865   -3.1582   53.1334 H      46  UNL46       0.0000
   1881 H          12.3827   -4.8850   55.2915 H      46  UNL46       0.0000
   1882 N          18.2999    3.0617   53.2045 N.3    47  UNL47       0.0000
   1883 C          15.8958    3.4262   51.8781 C.3    47  UNL47       0.0000
   1884 C          20.3925    1.5576   53.0630 C.3    47  UNL47       0.0000
   1885 O          16.3810    4.1874   54.3262 O.2    47  UNL47       0.0000
   1886 O          17.5384    5.3753   52.4026 O.2    47  UNL47       0.0000
   1887 O          20.5921    4.1892   52.8099 O.2    47  UNL47       0.0000
   1888 O          19.5406    2.9255   50.9196 O.2    47  UNL47       0.0000
   1889 F          15.1778    2.4325   52.4674 F      47  UNL47       0.0000
   1890 F          19.7792    0.4652   52.5474 F      47  UNL47       0.0000
   1891 F          16.4950    2.9144   50.7756 F      47  UNL47       0.0000
   1892 F          15.0231    4.3983   51.4833 F      47  UNL47       0.0000
   1893 F          20.2997    1.5042   54.4117 F      47  UNL47       0.0000
   1894 F          21.7063    1.5017   52.7207 F      47  UNL47       0.0000
   1895 S          17.1346    4.1449   53.0878 S.O2   47  UNL47       0.0000
   1896 S          19.6625    3.1359   52.3566 S.O2   47  UNL47       0.0000
   1897 TI          6.6270   16.2850   11.2794 Ti      1  UNL1        0.0000
   1898 TI         17.4574   19.1662    1.9146 Ti      1  UNL1        0.0000
   1899 TI         10.7237   12.3488    9.4595 Ti      1  UNL1        0.0000
   1900 TI         12.2348   21.5109    3.6864 Ti      1  UNL1        0.0000
   1901 TI         11.2363   23.1893    1.7820 Ti      1  UNL1        0.0000
   1902 TI         12.6119   12.0945   11.4128 Ti      1  UNL1        0.0000
   1903 TI          7.5762   14.5491    9.3880 Ti      1  UNL1        0.0000
   1904 TI         15.4696   19.4688    3.7621 Ti      1  UNL1        0.0000
   1905 H           7.1288   20.1821   11.0600 H       1  UNL1        0.0000
   1906 H          18.2662   15.2602    2.2353 H       1  UNL1        0.0000
   1907 H           2.6671   15.5284   10.8970 H       1  UNL1        0.0000
   1908 H          20.8396   21.1705    2.1153 H       1  UNL1        0.0000
   1909 H          13.5875    8.0599   11.0269 H       1  UNL1        0.0000
   1910 H           7.1778   22.5994    2.1041 H       1  UNL1        0.0000
   1911 H          11.7307   21.5524   -0.0910 H       1  UNL1        0.0000
   1912 H          15.5819   18.9235    0.2147 H       1  UNL1        0.0000
   1913 H          13.1218   11.4274    5.9017 H       1  UNL1        0.0000
   1914 H          10.5114   23.3480    7.3054 H       1  UNL1        0.0000
   1915 H           3.5036   17.9377    9.0321 H       1  UNL1        0.0000
   1916 H          20.2122   17.0819    4.2206 H       1  UNL1        0.0000
   1917 H           5.8047   16.4903    5.6982 H       1  UNL1        0.0000
   1918 H           8.1362   25.0171    4.1353 H       1  UNL1        0.0000
   1919 H          11.6285   26.2921    2.6375 H       1  UNL1        0.0000
   1920 H          18.1084   13.2413    3.4378 H       1  UNL1        0.0000
   1921 H          14.3275   21.1911    2.3478 H       1  UNL1        0.0000
   1922 H           9.6430   14.1972   10.7531 H       1  UNL1        0.0000
   1923 H          16.8466   14.0293    9.8025 H       1  UNL1        0.0000
   1924 H          15.3655   13.5603   10.5498 H       1  UNL1        0.0000
   1925 H          17.4207   18.4630    8.7036 H       1  UNL1        0.0000
   1926 H          16.8510   18.8215    7.0851 H       1  UNL1        0.0000
   1927 H          16.3578    9.0745    9.6125 H       1  UNL1        0.0000
   1928 H          15.0786   10.1751   10.0699 H       1  UNL1        0.0000
   1929 C          18.0355   18.4250    4.7782 C.3     1  UNL1        0.0000
   1930 C           5.6664   16.5464    8.4324 C.3     1  UNL1        0.0000
   1931 C          13.3042   11.3381    8.5347 C.3     1  UNL1        0.0000
   1932 C          10.2987   23.4815    4.6458 C.3     1  UNL1        0.0000
   1933 C          18.9315   17.8207    5.7734 C.ar    1  UNL1        0.0000
   1934 C           4.7345   17.1714    7.4554 C.ar    1  UNL1        0.0000
   1935 C          14.2444   10.7238    7.5876 C.ar    1  UNL1        0.0000
   1936 C           9.4089   24.1283    5.6456 C.ar    1  UNL1        0.0000
   1937 C          18.6827   17.8956    7.1798 C.ar    1  UNL1        0.0000
   1938 C           4.9509   17.0514    6.0673 C.ar    1  UNL1        0.0000
   1939 C          15.3738    9.9635    8.0406 C.ar    1  UNL1        0.0000
   1940 C           8.3142   24.9012    5.2007 C.ar    1  UNL1        0.0000
   1941 C           9.6634   23.9575    7.0005 C.ar    1  UNL1        0.0000
   1942 C          13.9967   10.8559    6.2036 C.ar    1  UNL1        0.0000
   1943 C          20.0652   17.1217    5.2977 C.ar    1  UNL1        0.0000
   1944 C           3.6344   17.8638    7.9541 C.ar    1  UNL1        0.0000
   1945 C          18.2473   15.3392    0.0912 C.2     1  UNL1        0.0000
   1946 C          11.7775   27.1308    0.1162 C.2     1  UNL1        0.0000
   1947 C          20.7317   21.1024   -0.0348 C.2     1  UNL1        0.0000
   1948 C           7.3734   22.6448   -0.0542 C.2     1  UNL1        0.0000
   1949 C          12.9816   19.1678    5.6510 C.3     1  UNL1        0.0000
   1950 C           8.2255   12.0734    7.5692 C.3     1  UNL1        0.0000
   1951 C          18.1114   16.7941    0.0680 C.2     1  UNL1        0.0000
   1952 C          11.6848   25.6973    0.0787 C.2     1  UNL1        0.0000
   1953 C          19.4339   20.4855    0.0121 C.2     1  UNL1        0.0000
   1954 C           8.7757   23.0591   -0.0297 C.2     1  UNL1        0.0000
   1955 C          18.2866   14.6701    1.3209 C.2     1  UNL1        0.0000
   1956 C           7.1398   20.7705   11.9739 C.ar    1  UNL1        0.0000
   1957 C          21.3870   21.3772    1.1992 C.2     1  UNL1        0.0000
   1958 C           2.1056   15.3490   11.8124 C.ar    1  UNL1        0.0000
   1959 C          16.7913   14.3046   11.8268 C.ar    1  UNL1        0.0000
   1960 C           6.6762   22.4144    1.1583 C.2     1  UNL1        0.0000
   1961 C          13.6291    7.5328   11.9760 C.ar    1  UNL1        0.0000
   1962 C          11.7913   27.8820    1.3455 C.2     1  UNL1        0.0000
   1963 N          11.8464   27.2832    2.5837 N.pl3   1  UNL1        0.0000
   1964 N          16.2123   14.1218   10.5879 N.pl3   1  UNL1        0.0000
   1965 N          17.6019   18.5418    7.7111 N.pl3   1  UNL1        0.0000
   1966 N          15.7048    9.8052    9.3580 N.pl3   1  UNL1        0.0000
   1967 O          16.8592   18.8301    5.1440 O.3     1  UNL1        0.0000
   1968 O           6.4354   15.5955    8.0341 O.3     1  UNL1        0.0000
   1969 O          13.6856   11.4626    9.7559 O.3     1  UNL1        0.0000
   1970 O          10.2329   23.9111    3.4462 O.3     1  UNL1        0.0000
   1971 O          11.0692   22.5242    5.0323 O.3     1  UNL1        0.0000
   1972 O          12.1337   11.7065    8.1292 O.3     1  UNL1        0.0000
   1973 O          18.4474   18.5057    3.5664 O.3     1  UNL1        0.0000
   1974 O           5.6244   16.9826    9.6321 O.3     1  UNL1        0.0000
   1975 O          15.7749   18.2509    2.5674 O.3     1  UNL1        0.0000
   1976 O           8.1286   16.1095   10.1325 O.3     1  UNL1        0.0000
   1977 O          16.7136   20.5382    3.0174 O.3     1  UNL1        0.0000
   1978 O           6.3765   14.3848   10.6252 O.3     1  UNL1        0.0000
   1979 O          10.9830   11.1768   10.7199 O.3     1  UNL1        0.0000
   1980 O          12.7514   23.0723    2.9480 O.3     1  UNL1        0.0000
   1981 O          11.9369   13.4383   10.2557 O.3     1  UNL1        0.0000
   1982 O          11.0452   21.3151    2.4305 O.3     1  UNL1        0.0000
   1983 O          13.3542   10.3226   12.0219 O.3     1  UNL1        0.0000
   1984 O          11.6017   24.9959    1.1739 O.2     1  UNL1        0.0000
   1985 O          14.1563   13.1108   12.0168 O.3     1  UNL1        0.0000
   1986 O           9.3657   23.1601    1.1139 O.2     1  UNL1        0.0000
   1987 O          18.8945   20.1853    1.1601 O.2     1  UNL1        0.0000
   1988 O           4.7402   16.2250   11.9479 O.3     1  UNL1        0.0000
   1989 O          18.0990   17.4310    1.1895 O.2     1  UNL1        0.0000
   1990 O           7.0084   18.0073   12.0292 O.3     1  UNL1        0.0000
   1991 O          13.9666   20.6423    3.0685 O.3     1  UNL1        0.0000
   1992 O           9.2647   13.6385   10.0495 O.3     1  UNL1        0.0000
   1993 O          16.4207   19.4172    0.1357 O.3     1  UNL1        0.0000
   1994 O          11.8531   22.5192   -0.0311 O.3     1  UNL1        0.0000
   1995 H          13.0518   15.3566    8.3561 H       1  UNL1        0.0000
   1996 H           9.1518    9.6369    6.8747 H       1  UNL1        0.0000
   1997 H          13.8843   24.3842    5.5739 H       1  UNL1        0.0000
   1998 H          14.1751   17.1190    6.9554 H       1  UNL1        0.0000
   1999 H           9.2359   17.2086    7.6072 H       1  UNL1        0.0000
   2000 H           5.6916   12.1778    6.6488 H       1  UNL1        0.0000
   2001 H          10.5919   15.4102    8.6461 H       1  UNL1        0.0000
   2002 H          10.3649   18.9771    6.2305 H       1  UNL1        0.0000
   2003 H          14.9773   22.1970    5.1700 H       1  UNL1        0.0000
   2004 H           1.3564   22.3980    5.7109 H       1  UNL1        0.0000
   2005 C          12.3346   18.1534    6.5247 C.ar    1  UNL1        0.0000
   2006 C          11.0824   16.1828    8.0550 C.ar    1  UNL1        0.0000
   2007 C          15.5407   23.0017    5.6430 C.ar    1  UNL1        0.0000
   2008 C           7.4945   11.0126    6.8232 C.ar    1  UNL1        0.0000
   2009 C          10.9398   18.1864    6.7080 C.ar    1  UNL1        0.0000
   2010 C          12.4724   16.1518    7.8888 C.ar    1  UNL1        0.0000
   2011 C          14.9214   24.2365    5.8711 C.ar    1  UNL1        0.0000
   2012 C           8.1156    9.7755    6.5738 C.ar    1  UNL1        0.0000
   2013 C          16.8789   22.7992    5.9996 C.ar    1  UNL1        0.0000
   2014 C           6.1548   11.2147    6.4454 C.ar    1  UNL1        0.0000
   2015 C          13.0993   17.1333    7.1178 C.ar    1  UNL1        0.0000
   2016 C          10.3161   17.1976    7.4691 C.ar    1  UNL1        0.0000
   2017 O          14.2232   19.0233    5.3563 O.3     1  UNL1        0.0000
   2018 O           7.5961   13.1490    7.8733 O.3     1  UNL1        0.0000
   2019 O           9.4330   11.8430    7.9309 O.3     1  UNL1        0.0000
   2020 O          12.2642   20.1288    5.2082 O.3     1  UNL1        0.0000
   2021 N          15.4282   24.4912   25.1201 N.pl3  48  UNL48       0.0000
   2022 N          15.8852   23.7022   27.1051 N.pl3  48  UNL48       0.0000
   2023 C          16.0720   23.2768   24.9374 C.2    48  UNL48       0.0000
   2024 C          16.3597   22.7843   26.1838 C.2    48  UNL48       0.0000
   2025 C          17.1846   24.6566   28.9928 C.3    48  UNL48       0.0000
   2026 C          14.9567   25.3850   24.0553 C.3    48  UNL48       0.0000
   2027 C          15.3168   24.7254   26.4395 C.3    48  UNL48       0.0000
   2028 C          16.1033   23.6646   28.5692 C.3    48  UNL48       0.0000
   2029 H          16.2916   22.8708   23.9581 H      48  UNL48       0.0000
   2030 H          16.8377   21.8596   26.4857 H      48  UNL48       0.0000
   2031 H          18.1396   24.4342   28.5000 H      48  UNL48       0.0000
   2032 H          15.8048   25.6622   23.4201 H      48  UNL48       0.0000
   2033 H          16.9014   25.6900   28.7557 H      48  UNL48       0.0000
   2034 H          14.1974   24.8541   23.4688 H      48  UNL48       0.0000
   2035 H          17.3320   24.5869   30.0789 H      48  UNL48       0.0000
   2036 H          16.3993   22.6354   28.8134 H      48  UNL48       0.0000
   2037 H          14.5186   26.2766   24.5143 H      48  UNL48       0.0000
   2038 H          14.8387   25.5872   26.8877 H      48  UNL48       0.0000
   2039 H          15.1350   23.8604   29.0458 H      48  UNL48       0.0000
   2040 N          21.0522   31.8070   26.9588 N.3    49  UNL49       0.0000
   2041 C          18.6480   32.1716   25.6324 C.3    49  UNL49       0.0000
   2042 C          23.1447   30.3030   26.8173 C.3    49  UNL49       0.0000
   2043 O          19.1332   32.9328   28.0804 O.2    49  UNL49       0.0000
   2044 O          20.2907   34.1207   26.1568 O.2    49  UNL49       0.0000
   2045 O          23.3443   32.9345   26.5641 O.2    49  UNL49       0.0000
   2046 O          22.2928   31.6709   24.6739 O.2    49  UNL49       0.0000
   2047 F          17.9300   31.1779   26.2216 F      49  UNL49       0.0000
   2048 F          22.5314   29.2105   26.3016 F      49  UNL49       0.0000
   2049 F          19.2473   31.6598   24.5299 F      49  UNL49       0.0000
   2050 F          17.7753   33.1437   25.2376 F      49  UNL49       0.0000
   2051 F          23.0520   30.2496   28.1660 F      49  UNL49       0.0000
   2052 F          24.4585   30.2471   26.4750 F      49  UNL49       0.0000
   2053 S          19.8868   32.8903   26.8421 S.O2   49  UNL49       0.0000
   2054 S          22.4148   31.8812   26.1109 S.O2   49  UNL49       0.0000
   2055 TI          1.9923    9.2186   24.3741 Ti      1  UNL1        0.0000
   2056 TI         12.8228   12.0998   15.0092 Ti      1  UNL1        0.0000
   2057 TI          6.0890    5.2824   22.5541 Ti      1  UNL1        0.0000
   2058 TI          7.6002   14.4445   16.7810 Ti      1  UNL1        0.0000
   2059 TI          6.6016   16.1228   14.8767 Ti      1  UNL1        0.0000
   2060 TI          7.9772    5.0280   24.5074 Ti      1  UNL1        0.0000
   2061 TI          2.9415    7.4827   22.4826 Ti      1  UNL1        0.0000
   2062 TI         10.8350   12.4023   16.8567 Ti      1  UNL1        0.0000
   2063 H           2.4942   13.1157   24.1546 H       1  UNL1        0.0000
   2064 H          13.6316    8.1937   15.3299 H       1  UNL1        0.0000
   2065 H          -1.9676    8.4619   23.9916 H       1  UNL1        0.0000
   2066 H          16.2049   14.1041   15.2099 H       1  UNL1        0.0000
   2067 H           8.9528    0.9935   24.1215 H       1  UNL1        0.0000
   2068 H           2.5431   15.5329   15.1987 H       1  UNL1        0.0000
   2069 H           7.0961   14.4860   13.0036 H       1  UNL1        0.0000
   2070 H          10.9473   11.8571   13.3093 H       1  UNL1        0.0000
   2071 H           8.4871    4.3609   18.9963 H       1  UNL1        0.0000
   2072 H           5.8768   16.2815   20.4000 H       1  UNL1        0.0000
   2073 H          -1.1311   10.8713   22.1267 H       1  UNL1        0.0000
   2074 H          15.5776   10.0155   17.3152 H       1  UNL1        0.0000
   2075 H           1.1700    9.4239   18.7928 H       1  UNL1        0.0000
   2076 H           3.5016   17.9507   17.2299 H       1  UNL1        0.0000
   2077 H           6.9939   19.2256   15.7321 H       1  UNL1        0.0000
   2078 H          13.4737    6.1749   16.5324 H       1  UNL1        0.0000
   2079 H           9.6928   14.1246   15.4424 H       1  UNL1        0.0000
   2080 H           5.0083    7.1308   23.8477 H       1  UNL1        0.0000
   2081 H          12.2120    6.9629   22.8971 H       1  UNL1        0.0000
   2082 H          10.7308    6.4938   23.6444 H       1  UNL1        0.0000
   2083 H          12.7861   11.3965   21.7982 H       1  UNL1        0.0000
   2084 H          12.2164   11.7551   20.1797 H       1  UNL1        0.0000
   2085 H          11.7231    2.0081   22.7071 H       1  UNL1        0.0000
   2086 H          10.4440    3.1086   23.1645 H       1  UNL1        0.0000
   2087 C          13.4008   11.3585   17.8728 C.3     1  UNL1        0.0000
   2088 C           1.0318    9.4800   21.5270 C.3     1  UNL1        0.0000
   2089 C           8.6695    4.2717   21.6294 C.3     1  UNL1        0.0000
   2090 C           5.6641   16.4150   17.7404 C.3     1  UNL1        0.0000
   2091 C          14.2969   10.7542   18.8680 C.ar    1  UNL1        0.0000
   2092 C           0.0999   10.1050   20.5500 C.ar    1  UNL1        0.0000
   2093 C           9.6097    3.6573   20.6822 C.ar    1  UNL1        0.0000
   2094 C           4.7743   17.0618   18.7402 C.ar    1  UNL1        0.0000
   2095 C          14.0481   10.8291   20.2744 C.ar    1  UNL1        0.0000
   2096 C           0.3163    9.9850   19.1620 C.ar    1  UNL1        0.0000
   2097 C          10.7392    2.8970   21.1352 C.ar    1  UNL1        0.0000
   2098 C           3.6795   17.8348   18.2953 C.ar    1  UNL1        0.0000
   2099 C           5.0288   16.8911   20.0951 C.ar    1  UNL1        0.0000
   2100 C           9.3620    3.7895   19.2982 C.ar    1  UNL1        0.0000
   2101 C          15.4305   10.0552   18.3923 C.ar    1  UNL1        0.0000
   2102 C          -1.0003   10.7974   21.0487 C.ar    1  UNL1        0.0000
   2103 C          13.6126    8.2728   13.1858 C.ar    1  UNL1        0.0000
   2104 C           7.1429   20.0644   13.2108 C.ar    1  UNL1        0.0000
   2105 C          16.0970   14.0359   13.0598 C.ar    1  UNL1        0.0000
   2106 C           2.7387   15.5784   13.0404 C.ar    1  UNL1        0.0000
   2107 C           8.3469   12.1013   18.7456 C.3     1  UNL1        0.0000
   2108 C           3.5908    5.0070   20.6638 C.3     1  UNL1        0.0000
   2109 C          13.4768    9.7277   13.1626 C.3     1  UNL1        0.0000
   2110 C           7.0501   18.6309   13.1734 C.3     1  UNL1        0.0000
   2111 C          14.7992   13.4191   13.1067 C.3     1  UNL1        0.0000
   2112 C           4.1410   15.9927   13.0649 C.3     1  UNL1        0.0000
   2113 C          13.6520    7.6037   14.4155 C.ar    1  UNL1        0.0000
   2114 C           2.5051   13.7041   25.0685 C.ar    1  UNL1        0.0000
   2115 C          16.7523   14.3107   14.2938 C.ar    1  UNL1        0.0000
   2116 C          -2.5291    8.2826   24.9070 C.ar    1  UNL1        0.0000
   2117 C          12.1567    7.2382   24.9215 C.ar    1  UNL1        0.0000
   2118 C           2.0415   15.3479   14.2529 C.ar    1  UNL1        0.0000
   2119 C           8.9945    0.4663   25.0706 C.ar    1  UNL1        0.0000
   2120 C           7.1567   20.8156   14.4401 C.ar    1  UNL1        0.0000
   2121 N           7.2117   20.2167   15.6783 N.pl3   1  UNL1        0.0000
   2122 N          11.5777    7.0554   23.6825 N.pl3   1  UNL1        0.0000
   2123 N          12.9672   11.4754   20.8057 N.pl3   1  UNL1        0.0000
   2124 N          11.0702    2.7388   22.4526 N.pl3   1  UNL1        0.0000
   2125 O          12.2245   11.7636   18.2386 O.3     1  UNL1        0.0000
   2126 O           1.8008    8.5291   21.1287 O.3     1  UNL1        0.0000
   2127 O           9.0510    4.3962   22.8505 O.3     1  UNL1        0.0000
   2128 O           5.5982   16.8447   16.5408 O.3     1  UNL1        0.0000
   2129 O           6.4345   15.4578   18.1269 O.3     1  UNL1        0.0000
   2130 O           7.4991    4.6401   21.2238 O.3     1  UNL1        0.0000
   2131 O          13.8127   11.4393   16.6610 O.3     1  UNL1        0.0000
   2132 O           0.9898    9.9162   22.7267 O.3     1  UNL1        0.0000
   2133 O          11.1402   11.1844   15.6620 O.3     1  UNL1        0.0000
   2134 O           3.4940    9.0430   23.2271 O.3     1  UNL1        0.0000
   2135 O          12.0790   13.4717   16.1120 O.3     1  UNL1        0.0000
   2136 O           1.7418    7.3184   23.7198 O.3     1  UNL1        0.0000
   2137 O           6.3483    4.1104   23.8145 O.3     1  UNL1        0.0000
   2138 O           8.1168   16.0058   16.0426 O.3     1  UNL1        0.0000
   2139 O           7.3023    6.3719   23.3503 O.3     1  UNL1        0.0000
   2140 O           6.4105   14.2487   15.5251 O.3     1  UNL1        0.0000
   2141 O           8.7195    3.2562   25.1166 O.3     1  UNL1        0.0000
   2142 O           6.9670   17.9294   14.2686 O.3     1  UNL1        0.0000
   2143 O           9.5217    6.0444   25.1114 O.3     1  UNL1        0.0000
   2144 O           4.7311   16.0937   14.2085 O.3     1  UNL1        0.0000
   2145 O          14.2599   13.1189   14.2547 O.3     1  UNL1        0.0000
   2146 O           0.1055    9.1585   25.0425 O.3     1  UNL1        0.0000
   2147 O          13.4643   10.3646   14.2841 O.3     1  UNL1        0.0000
   2148 O           2.3737   10.9409   25.1238 O.3     1  UNL1        0.0000
   2149 O           9.3320   13.5759   16.1631 O.3     1  UNL1        0.0000
   2150 O           4.6301    6.5721   23.1441 O.3     1  UNL1        0.0000
   2151 O          11.7861   12.3508   13.2303 O.3     1  UNL1        0.0000
   2152 O           7.2185   15.4528   13.0635 O.3     1  UNL1        0.0000
   2153 H           8.4171    8.2902   21.4507 H       1  UNL1        0.0000
   2154 H           4.5172    2.5705   19.9693 H       1  UNL1        0.0000
   2155 H           9.2497   17.3178   18.6685 H       1  UNL1        0.0000
   2156 H           9.5405   10.0526   20.0500 H       1  UNL1        0.0000
   2157 H           4.6013   10.1421   20.7018 H       1  UNL1        0.0000
   2158 H           1.0569    5.1114   19.7434 H       1  UNL1        0.0000
   2159 H           5.9572    8.3438   21.7407 H       1  UNL1        0.0000
   2160 H           5.7303   11.9107   19.3251 H       1  UNL1        0.0000
   2161 H          10.3427   15.1305   18.2646 H       1  UNL1        0.0000
   2162 H          -3.2783   15.3316   18.8055 H       1  UNL1        0.0000
   2163 C           7.6999   11.0870   19.6193 C.ar    1  UNL1        0.0000
   2164 C           6.4478    9.1163   21.1496 C.ar    1  UNL1        0.0000
   2165 C          10.9060   15.9353   18.7376 C.ar    1  UNL1        0.0000
   2166 C           2.8599    3.9461   19.9178 C.ar    1  UNL1        0.0000
   2167 C           6.3051   11.1200   19.8026 C.ar    1  UNL1        0.0000
   2168 C           7.8378    9.0853   20.9834 C.ar    1  UNL1        0.0000
   2169 C          10.2868   17.1701   18.9657 C.ar    1  UNL1        0.0000
   2170 C           3.4809    2.7090   19.6684 C.ar    1  UNL1        0.0000
   2171 C          12.2443   15.7327   19.0942 C.ar    1  UNL1        0.0000
   2172 C           1.5202    4.1482   19.5400 C.ar    1  UNL1        0.0000
   2173 C           8.4647   10.0668   20.2124 C.ar    1  UNL1        0.0000
   2174 C           5.6815   10.1312   20.5637 C.ar    1  UNL1        0.0000
   2175 O           9.5886   11.9569   18.4509 O.3     1  UNL1        0.0000
   2176 O           2.9615    6.0826   20.9679 O.3     1  UNL1        0.0000
   2177 O           4.7984    4.7766   21.0255 O.3     1  UNL1        0.0000
   2178 O           7.6295   13.0624   18.3028 O.3     1  UNL1        0.0000
   2179 N          10.7935   17.4247   38.2147 N.pl3  49  UNL49       0.0000
   2180 N          11.2506   16.6358   40.1997 N.pl3  49  UNL49       0.0000
   2181 C          11.4374   16.2104   38.0321 C.2    49  UNL49       0.0000
   2182 C          11.7251   15.7178   39.2784 C.2    49  UNL49       0.0000
   2183 C          12.5499   17.5902   42.0874 C.3    49  UNL49       0.0000
   2184 C          10.3221   18.3186   37.1499 C.3    49  UNL49       0.0000
   2185 C          10.6822   17.6589   39.5341 C.3    49  UNL49       0.0000
   2186 C          11.4687   16.5982   41.6638 C.3    49  UNL49       0.0000
   2187 H          11.6570   15.8043   37.0527 H      49  UNL49       0.0000
   2188 H          12.2031   14.7932   39.5803 H      49  UNL49       0.0000
   2189 H          13.5050   17.3678   41.5946 H      49  UNL49       0.0000
   2190 H          11.1701   18.5958   36.5147 H      49  UNL49       0.0000
   2191 H          12.2668   18.6236   41.8503 H      49  UNL49       0.0000
   2192 H           9.5627   17.7877   36.5634 H      49  UNL49       0.0000
   2193 H          12.6974   17.5205   43.1735 H      49  UNL49       0.0000
   2194 H          11.7646   15.5690   41.9080 H      49  UNL49       0.0000
   2195 H           9.8839   19.2102   37.6089 H      49  UNL49       0.0000
   2196 H          10.2041   18.5207   39.9823 H      49  UNL49       0.0000
   2197 H          10.5003   16.7940   42.1404 H      49  UNL49       0.0000
   2198 N          16.4175   24.7406   40.0534 N.3    49  UNL49       0.0000
   2199 C          14.0134   25.1052   38.7270 C.3    49  UNL49       0.0000
   2200 C          18.5101   23.2366   39.9119 C.3    49  UNL49       0.0000
   2201 O          14.4986   25.8664   41.1751 O.2    49  UNL49       0.0000
   2202 O          15.6560   27.0543   39.2514 O.2    49  UNL49       0.0000
   2203 O          18.7097   25.8681   39.6587 O.2    49  UNL49       0.0000
   2204 O          17.6582   24.6045   37.7685 O.2    49  UNL49       0.0000
   2205 F          13.2954   24.1114   39.3162 F      49  UNL49       0.0000
   2206 F          17.8968   22.1441   39.3963 F      49  UNL49       0.0000
   2207 F          14.6127   24.5934   37.6245 F      49  UNL49       0.0000
   2208 F          13.1407   26.0773   38.3322 F      49  UNL49       0.0000
   2209 F          18.4173   23.1831   41.2606 F      49  UNL49       0.0000
   2210 F          19.8239   23.1806   39.5696 F      49  UNL49       0.0000
   2211 S          15.2522   25.8239   39.9367 S.O2   49  UNL49       0.0000
   2212 S          17.7801   24.8148   39.2055 S.O2   49  UNL49       0.0000
   2213 TI         -2.6423    2.1521   37.4687 Ti      1  UNL1        0.0000
   2214 TI          8.1882    5.0333   28.1039 Ti      1  UNL1        0.0000
   2215 TI          1.4544   -1.7841   35.6487 Ti      1  UNL1        0.0000
   2216 TI          2.9656    7.3781   29.8757 Ti      1  UNL1        0.0000
   2217 TI          1.9670    9.0564   27.9713 Ti      1  UNL1        0.0000
   2218 TI          3.3426   -2.0384   37.6021 Ti      1  UNL1        0.0000
   2219 TI         -1.6931    0.4162   35.5772 Ti      1  UNL1        0.0000
   2220 TI          6.2003    5.3359   29.9513 Ti      1  UNL1        0.0000
   2221 H          -2.1404    6.0492   37.2492 H      49  UNL49       0.0000
   2222 H           8.9969    1.1273   28.4245 H       1  UNL1        0.0000
   2223 H          -6.6022    1.3955   37.0862 H       7  UNL7        0.0000
   2224 H          11.5703    7.0376   28.3045 H       1  UNL1        0.0000
   2225 H           4.3182   -6.0729   37.2161 H      14  UNL14       0.0000
   2226 H          -2.0915    8.4665   28.2933 H       1  UNL1        0.0000
   2227 H           2.4614    7.4196   26.0982 H       1  UNL1        0.0000
   2228 H           6.3126    4.7907   26.4039 H       1  UNL1        0.0000
   2229 H           3.8525   -2.7055   32.0910 H       1  UNL1        0.0000
   2230 H           1.2421    9.2151   33.4946 H       1  UNL1        0.0000
   2231 H          -5.7657    3.8049   35.2213 H       1  UNL1        0.0000
   2232 H          10.9429    2.9490   30.4099 H       1  UNL1        0.0000
   2233 H          -3.4646    2.3574   31.8874 H       1  UNL1        0.0000
   2234 H          -1.1331   10.8842   30.3245 H       1  UNL1        0.0000
   2235 H           2.3592   12.1592   28.8267 H       1  UNL1        0.0000
   2236 H           8.8391   -0.8915   29.6270 H       1  UNL1        0.0000
   2237 H           5.0582    7.0582   28.5370 H       1  UNL1        0.0000
   2238 H           0.3737    0.0643   36.9423 H       1  UNL1        0.0000
   2239 H           7.5773   -0.1036   35.9917 H      49  UNL49       0.0000
   2240 H           6.0962   -0.5726   36.7391 H      49  UNL49       0.0000
   2241 H           8.1514    4.3301   34.8928 H       1  UNL1        0.0000
   2242 H           7.5817    4.6887   33.2743 H       1  UNL1        0.0000
   2243 H           7.0885   -5.0584   35.8017 H       1  UNL1        0.0000
   2244 H           5.8093   -3.9578   36.2591 H       1  UNL1        0.0000
   2245 C           8.7662    4.2921   30.9674 C.3     1  UNL1        0.0000
   2246 C          -3.6029    2.4135   34.6216 C.3     1  UNL1        0.0000
   2247 C           4.0349   -2.7948   34.7240 C.3     1  UNL1        0.0000
   2248 C           1.0294    9.3486   30.8350 C.3     1  UNL1        0.0000
   2249 C           9.6622    3.6878   31.9626 C.ar    1  UNL1        0.0000
   2250 C          -4.5348    3.0385   33.6446 C.ar    1  UNL1        0.0000
   2251 C           4.9751   -3.4091   33.7768 C.ar    1  UNL1        0.0000
   2252 C           0.1396    9.9954   31.8348 C.ar    1  UNL1        0.0000
   2253 C           9.4134    3.7627   33.3690 C.ar    1  UNL1        0.0000
   2254 C          -4.3184    2.9186   32.2566 C.ar    1  UNL1        0.0000
   2255 C           6.1045   -4.1694   34.2298 C.ar    1  UNL1        0.0000
   2256 C          -0.9551   10.7683   31.3899 C.ar    1  UNL1        0.0000
   2257 C           0.3941    9.8246   33.1897 C.ar    1  UNL1        0.0000
   2258 C           4.7274   -3.2770   32.3929 C.ar    1  UNL1        0.0000
   2259 C          10.7959    2.9888   31.4869 C.ar    1  UNL1        0.0000
   2260 C          -5.6349    3.7309   34.1433 C.ar    1  UNL1        0.0000
   2261 C           8.9780    1.2064   26.2804 C.ar    1  UNL1        0.0000
   2262 C           2.5082   12.9980   26.3055 C.ar    1  UNL1        0.0000
   2263 C          11.4624    6.9695   26.1544 C.ar    1  UNL1        0.0000
   2264 C          -1.8959    8.5119   26.1351 C.ar    1  UNL1        0.0000
   2265 C           3.7123    5.0349   31.8402 C.3     1  UNL1        0.0000
   2266 C          -1.0438   -2.0595   33.7584 C.3     1  UNL1        0.0000
   2267 C           8.8421    2.6612   26.2572 C.3     1  UNL1        0.0000
   2268 C           2.4155   11.5644   26.2680 C.3     1  UNL1        0.0000
   2269 C          10.1646    6.3527   26.2013 C.3     1  UNL1        0.0000
   2270 C          -0.4936    8.9263   26.1595 C.3     1  UNL1        0.0000
   2271 C           9.0173    0.5373   27.5101 C.ar    1  UNL1        0.0000
   2272 C          -2.1295    6.6376   38.1631 C.2    49  UNL49       0.0000
   2273 C          12.1177    7.2443   27.3884 C.ar    1  UNL1        0.0000
   2274 C          -7.1637    1.2161   38.0016 C.2     7  UNL7        0.0000
   2275 C           7.5221    0.1718   38.0161 C.2    49  UNL49       0.0000
   2276 C          -2.5931    8.2815   27.3475 C.ar    1  UNL1        0.0000
   2277 C           4.3598   -6.6001   38.1652 C.2    14  UNL14       0.0000
   2278 C           2.5220   13.7491   27.5347 C.ar    1  UNL1        0.0000
   2279 N           2.5771   13.1503   28.7729 N.pl3   1  UNL1        0.0000
   2280 N           6.9430   -0.0111   36.7771 N.pl3  49  UNL49       0.0000
   2281 N           8.3326    4.4090   33.9003 N.pl3   1  UNL1        0.0000
   2282 N           6.4355   -4.3277   35.5472 N.pl3   1  UNL1        0.0000
   2283 O           7.5899    4.6972   31.3332 O.3     1  UNL1        0.0000
   2284 O          -2.8339    1.4627   34.2234 O.3     1  UNL1        0.0000
   2285 O           4.4163   -2.6703   35.9451 O.3     1  UNL1        0.0000
   2286 O           0.9636    9.7782   29.6354 O.3     1  UNL1        0.0000
   2287 O           1.7999    8.3914   31.2215 O.3     1  UNL1        0.0000
   2288 O           2.8644   -2.4263   34.3184 O.3     1  UNL1        0.0000
   2289 O           9.1781    4.3729   29.7556 O.3     1  UNL1        0.0000
   2290 O          -3.6449    2.8498   35.8213 O.3     1  UNL1        0.0000
   2291 O           6.5056    4.1180   28.7566 O.3     1  UNL1        0.0000
   2292 O          -1.1407    1.9766   36.3217 O.3     1  UNL1        0.0000
   2293 O           7.4443    6.4053   29.2066 O.3     1  UNL1        0.0000
   2294 O          -2.8928    0.2519   36.8144 O.3     1  UNL1        0.0000
   2295 O           1.7137   -2.9560   36.9091 O.3     1  UNL1        0.0000
   2296 O           3.4821    8.9394   29.1372 O.3     1  UNL1        0.0000
   2297 O           2.6676   -0.6945   36.4449 O.3     1  UNL1        0.0000
   2298 O           1.7759    7.1823   28.6197 O.3     1  UNL1        0.0000
   2299 O           4.0849   -3.8103   38.2112 O.3     1  UNL1        0.0000
   2300 O           2.3324   10.8630   27.3632 O.3     1  UNL1        0.0000
   2301 O           4.8870   -1.0221   38.2060 O.3     1  UNL1        0.0000
   2302 O           0.0964    9.0273   27.3031 O.3     1  UNL1        0.0000
   2303 O           9.6252    6.0525   27.3493 O.3     1  UNL1        0.0000
   2304 O          -4.5291    2.0921   38.1371 O.3     1  UNL1        0.0000
   2305 O           8.8297    3.2981   27.3787 O.3     1  UNL1        0.0000
   2306 O          -2.2609    3.8744   38.2184 O.3     1  UNL1        0.0000
   2307 O           4.6973    6.5094   29.2577 O.3     1  UNL1        0.0000
   2308 O          -0.0046   -0.4944   36.2387 O.3     1  UNL1        0.0000
   2309 O           7.1515    5.2843   26.3249 O.3     1  UNL1        0.0000
   2310 O           2.5838    8.3864   26.1582 O.3     1  UNL1        0.0000
   2311 H           3.7825    1.2237   34.5453 H       1  UNL1        0.0000
   2312 H          -0.1175   -4.4960   33.0639 H       1  UNL1        0.0000
   2313 H           4.6150   10.2514   31.7631 H       1  UNL1        0.0000
   2314 H           4.9059    2.9861   33.1446 H       1  UNL1        0.0000
   2315 H          -0.0334    3.0757   33.7964 H       1  UNL1        0.0000
   2316 H          -3.5777   -1.9551   32.8380 H       1  UNL1        0.0000
   2317 H           1.3226    1.2773   34.8353 H       1  UNL1        0.0000
   2318 H           1.0956    4.8442   32.4197 H       1  UNL1        0.0000
   2319 H           5.7080    8.0641   31.3592 H       1  UNL1        0.0000
   2320 H          -7.9129    8.2652   31.9001 H       1  UNL1        0.0000
   2321 C           3.0653    4.0206   32.7139 C.ar    1  UNL1        0.0000
   2322 C           1.8131    2.0499   34.2442 C.ar    1  UNL1        0.0000
   2323 C           6.2714    8.8689   31.8322 C.ar    1  UNL1        0.0000
   2324 C          -1.7748   -3.1203   33.0124 C.ar    1  UNL1        0.0000
   2325 C           1.6705    4.0535   32.8972 C.ar    1  UNL1        0.0000
   2326 C           3.2031    2.0189   34.0780 C.ar    1  UNL1        0.0000
   2327 C           5.6521   10.1036   32.0603 C.ar    1  UNL1        0.0000
   2328 C          -1.1537   -4.3574   32.7630 C.ar    1  UNL1        0.0000
   2329 C           7.6096    8.6663   32.1888 C.ar    1  UNL1        0.0000
   2330 C          -3.1145   -2.9182   32.6346 C.ar    1  UNL1        0.0000
   2331 C           3.8300    3.0004   33.3071 C.ar    1  UNL1        0.0000
   2332 C           1.0468    3.0647   33.6583 C.ar    1  UNL1        0.0000
   2333 O           4.9539    4.8905   31.5455 O.3     1  UNL1        0.0000
   2334 O          -1.6732   -0.9839   34.0625 O.3     1  UNL1        0.0000
   2335 O           0.1637   -2.2898   34.1202 O.3     1  UNL1        0.0000
   2336 O           2.9949    5.9959   31.3974 O.3     1  UNL1        0.0000
   2337 N           6.1589   10.3583   51.3093 N.pl3  49  UNL49       0.0000
   2338 N           6.6159    9.5694   53.2943 N.pl3  49  UNL49       0.0000
   2339 C           6.8028    9.1439   51.1267 C.2    49  UNL49       0.0000
   2340 C           7.0904    8.6514   52.3730 C.2    49  UNL49       0.0000
   2341 C           7.9153   10.5237   55.1820 C.3    49  UNL49       0.0000
   2342 C           5.6874   11.2521   50.2445 C.3    49  UNL49       0.0000
   2343 C           6.0475   10.5925   52.6287 C.3    49  UNL49       0.0000
   2344 C           6.8340    9.5317   54.7584 C.3    49  UNL49       0.0000
   2345 H           7.0223    8.7379   50.1473 H      49  UNL49       0.0000
   2346 H           7.5684    7.7268   52.6749 H      49  UNL49       0.0000
   2347 H           8.8703   10.3014   54.6893 H      49  UNL49       0.0000
   2348 H           6.5355   11.5293   49.6093 H      49  UNL49       0.0000
   2349 H           7.6322   11.5571   54.9449 H      49  UNL49       0.0000
   2350 H           4.9281   10.7212   49.6581 H      49  UNL49       0.0000
   2351 H           8.0627   10.4540   56.2681 H      49  UNL49       0.0000
   2352 H           7.1300    8.5025   55.0026 H      49  UNL49       0.0000
   2353 H           5.2493   12.1437   50.7035 H      49  UNL49       0.0000
   2354 H           5.5694   11.4543   53.0769 H      49  UNL49       0.0000
   2355 H           5.8657    9.7276   55.2350 H      49  UNL49       0.0000
   2356 N          11.7829   17.6742   53.1480 N.3    49  UNL49       0.0000
   2357 C           9.3787   18.0387   51.8216 C.3    49  UNL49       0.0000
   2358 C          13.8754   16.1701   53.0065 C.3    49  UNL49       0.0000
   2359 O           9.8640   18.7999   54.2697 O.2    49  UNL49       0.0000
   2360 O          11.0214   19.9878   52.3460 O.2    49  UNL49       0.0000
   2361 O          14.0751   18.8017   52.7533 O.2    49  UNL49       0.0000
   2362 O          13.0236   17.5380   50.8631 O.2    49  UNL49       0.0000
   2363 F           8.6608   17.0450   52.4109 F      49  UNL49       0.0000
   2364 F          13.2621   15.0777   52.4909 F      49  UNL49       0.0000
   2365 F           9.9780   17.5269   50.7191 F      49  UNL49       0.0000
   2366 F           8.5061   19.0108   51.4268 F      49  UNL49       0.0000
   2367 F          13.7827   16.1167   54.3552 F      49  UNL49       0.0000
   2368 F          15.1893   16.1142   52.6642 F      49  UNL49       0.0000
   2369 S          10.6175   18.7575   53.0313 S.O2   49  UNL49       0.0000
   2370 S          13.1455   17.7484   52.3001 S.O2   49  UNL49       0.0000
   2371 TI          0.1099   30.8975   11.2229 Ti      1  UNL1        0.0000
   2372 TI         10.9404   33.7787    1.8581 Ti      1  UNL1        0.0000
   2373 TI          4.2066   26.9613    9.4029 Ti      1  UNL1        0.0000
   2374 TI          5.7178   36.1235    3.6299 Ti      1  UNL1        0.0000
   2375 TI          4.7192   37.8018    1.7255 Ti      1  UNL1        0.0000
   2376 TI          6.0948   26.7070   11.3563 Ti      1  UNL1        0.0000
   2377 TI          1.0591   29.1616    9.3315 Ti      1  UNL1        0.0000
   2378 TI          8.9526   34.0813    3.7056 Ti      1  UNL1        0.0000
   2379 H           0.6118   34.7946   11.0035 H       1  UNL1        0.0000
   2380 H          11.7492   29.8727    2.1788 H       1  UNL1        0.0000
   2381 H          -3.8500   30.1409   10.8405 H       1  UNL1        0.0000
   2382 H          14.3226   35.7830    2.0588 H       1  UNL1        0.0000
   2383 H           7.0704   22.6724   10.9704 H       1  UNL1        0.0000
   2384 H           0.6607   37.2119    2.0476 H       1  UNL1        0.0000
   2385 H           5.2137   36.1650   -0.1476 H       1  UNL1        0.0000
   2386 H           9.0649   33.5360    0.1582 H       1  UNL1        0.0000
   2387 H           6.6047   26.0399    5.8452 H       1  UNL1        0.0000
   2388 H           3.9944   37.9605    7.2489 H       1  UNL1        0.0000
   2389 H          -3.0135   32.5503    8.9755 H       1  UNL1        0.0000
   2390 H          13.6952   31.6944    4.1641 H       1  UNL1        0.0000
   2391 H          -0.7124   31.1028    5.6417 H       1  UNL1        0.0000
   2392 H           1.6192   39.6296    4.0788 H       1  UNL1        0.0000
   2393 H           5.1115   40.9046    2.5810 H       1  UNL1        0.0000
   2394 H          11.5914   27.8538    3.3813 H       1  UNL1        0.0000
   2395 H           7.8104   35.8036    2.2913 H       1  UNL1        0.0000
   2396 H           3.1259   28.8097   10.6966 H       1  UNL1        0.0000
   2397 H          10.3296   28.6418    9.7460 H       1  UNL1        0.0000
   2398 H           8.8484   28.1728   10.4933 H       1  UNL1        0.0000
   2399 H          10.9037   33.0755    8.6471 H       1  UNL1        0.0000
   2400 H          10.3340   33.4340    7.0285 H       1  UNL1        0.0000
   2401 H           9.8408   23.6870    9.5559 H       1  UNL1        0.0000
   2402 H           8.5616   24.7876   10.0133 H       1  UNL1        0.0000
   2403 C          11.5185   33.0375    4.7216 C.3     1  UNL1        0.0000
   2404 C          -0.8506   31.1589    8.3759 C.3     1  UNL1        0.0000
   2405 C           6.7871   25.9506    8.4782 C.3     1  UNL1        0.0000
   2406 C           3.7817   38.0940    4.5893 C.3     1  UNL1        0.0000
   2407 C          12.4145   32.4332    5.7168 C.ar    1  UNL1        0.0000
   2408 C          -1.7825   31.7839    7.3989 C.ar    1  UNL1        0.0000
   2409 C           7.7273   25.3363    7.5310 C.ar    1  UNL1        0.0000
   2410 C           2.8919   38.7408    5.5891 C.2     1  UNL1        0.0000
   2411 C          12.1657   32.5081    7.1233 C.ar    1  UNL1        0.0000
   2412 C          -1.5661   31.6639    6.0108 C.ar    1  UNL1        0.0000
   2413 C           8.8568   24.5760    7.9841 C.ar    1  UNL1        0.0000
   2414 C           1.7972   39.5137    5.1441 C.3     1  UNL1        0.0000
   2415 C           3.1464   38.5700    6.9440 C.2     1  UNL1        0.0000
   2416 C           7.4796   25.4684    6.1471 C.ar    1  UNL1        0.0000
   2417 C          13.5481   31.7342    5.2411 C.ar    1  UNL1        0.0000
   2418 C          -2.8827   32.4763    7.8975 C.ar    1  UNL1        0.0000
   2419 C          11.7302   29.9517    0.0347 C.2     1  UNL1        0.0000
   2420 C           5.2605   41.7433    0.0597 C.2     1  UNL1        0.0000
   2421 C          14.2147   35.7149   -0.0913 C.2     1  UNL1        0.0000
   2422 C           0.8563   37.2573   -0.1107 C.2     1  UNL1        0.0000
   2423 C           6.4645   33.7803    5.5945 C.3     1  UNL1        0.0000
   2424 C           1.7084   26.6859    7.5126 C.3     1  UNL1        0.0000
   2425 C          11.5944   31.4066    0.0115 C.2     1  UNL1        0.0000
   2426 C           5.1677   40.3098    0.0222 C.2     1  UNL1        0.0000
   2427 C          12.9168   35.0980   -0.0444 C.2     1  UNL1        0.0000
   2428 C           2.2586   37.6716   -0.0862 C.2     1  UNL1        0.0000
   2429 C          11.7696   29.2826    1.2644 C.2     1  UNL1        0.0000
   2430 C           0.6227   35.3830   11.9174 C.3     1  UNL1        0.0000
   2431 C          14.8700   35.9897    1.1427 C.2     1  UNL1        0.0000
   2432 C          -4.4114   29.9615   11.7558 C.ar    1  UNL1        0.0000
   2433 C          10.2743   28.9172   11.7703 C.ar    1  UNL1        0.0000
   2434 C           0.1591   37.0269    1.1018 C.2     1  UNL1        0.0000
   2435 C           7.1121   22.1453   11.9194 C.ar    1  UNL1        0.0000
   2436 C           5.2743   42.4945    1.2890 C.3     1  UNL1        0.0000
   2437 N           5.3293   41.8957    2.5272 N.3     1  UNL1        0.0000
   2438 N           9.6953   28.7343   10.5314 N.pl3   1  UNL1        0.0000
   2439 N          11.0848   33.1543    7.6546 N.pl3   1  UNL1        0.0000
   2440 N           9.1878   24.4177    9.3015 N.pl3   1  UNL1        0.0000
   2441 O          10.3421   33.4426    5.0874 O.3     1  UNL1        0.0000
   2442 O          -0.0816   30.2080    7.9776 O.3     1  UNL1        0.0000
   2443 O           7.1686   26.0751    9.6993 O.3     1  UNL1        0.0000
   2444 O           3.7158   38.5236    3.3897 O.3     1  UNL1        0.0000
   2445 O           4.5522   37.1367    4.9757 O.3     1  UNL1        0.0000
   2446 O           5.6167   26.3191    8.0727 O.3     1  UNL1        0.0000
   2447 O          11.9303   33.1182    3.5099 O.3     1  UNL1        0.0000
   2448 O          -0.8926   31.5952    9.5756 O.3     1  UNL1        0.0000
   2449 O           9.2578   32.8634    2.5109 O.3     1  UNL1        0.0000
   2450 O           1.6116   30.7220   10.0760 O.3     1  UNL1        0.0000
   2451 O          10.1966   35.1507    2.9609 O.3     1  UNL1        0.0000
   2452 O          -0.1406   28.9973   10.5686 O.3     1  UNL1        0.0000
   2453 O           4.4659   25.7894   10.6634 O.3     1  UNL1        0.0000
   2454 O           6.2344   37.6848    2.8914 O.3     1  UNL1        0.0000
   2455 O           5.4199   28.0508   10.1992 O.3     1  UNL1        0.0000
   2456 O           4.5281   35.9277    2.3740 O.3     1  UNL1        0.0000
   2457 O           6.8372   24.9351   11.9654 O.3     1  UNL1        0.0000
   2458 O           5.0846   39.6084    1.1174 O.2     1  UNL1        0.0000
   2459 O           7.6393   27.7233   11.9603 O.3     1  UNL1        0.0000
   2460 O           2.8487   37.7727    1.0574 O.2     1  UNL1        0.0000
   2461 O          12.3775   34.7979    1.1036 O.2     1  UNL1        0.0000
   2462 O          -1.7768   30.8375   11.8914 O.3     1  UNL1        0.0000
   2463 O          11.5819   32.0435    1.1330 O.2     1  UNL1        0.0000
   2464 O           0.4914   32.6198   11.9726 O.2     1  UNL1        0.0000
   2465 O           7.4496   35.2548    3.0120 O.3     1  UNL1        0.0000
   2466 O           2.7477   28.2510    9.9930 O.3     1  UNL1        0.0000
   2467 O           9.9037   34.0297    0.0792 O.3     1  UNL1        0.0000
   2468 O           5.3361   37.1318   -0.0876 O.3     1  UNL1        0.0000
   2469 H           6.5347   29.9691    8.2995 H       1  UNL1        0.0000
   2470 H           2.6348   24.2494    6.8182 H       1  UNL1        0.0000
   2471 H           7.3673   38.9967    5.5174 H      49  UNL49       0.0000
   2472 H           7.6581   31.7315    6.8989 H       1  UNL1        0.0000
   2473 H           2.7189   31.8211    7.5507 H       1  UNL1        0.0000
   2474 H          -0.8254   26.7903    6.5922 H       1  UNL1        0.0000
   2475 H           4.0748   30.0227    8.5896 H       1  UNL1        0.0000
   2476 H           3.8479   33.5896    6.1740 H       1  UNL1        0.0000
   2477 H           8.4603   36.8095    5.1134 H      49  UNL49       0.0000
   2478 H          -5.1607   37.0106    5.6544 H       8  UNL8        0.0000
   2479 C           5.8175   32.7659    6.4682 C.ar    1  UNL1        0.0000
   2480 C           4.5654   30.7953    7.9985 C.ar    1  UNL1        0.0000
   2481 C           9.0236   37.6143    5.5865 C.2    49  UNL49       0.0000
   2482 C           0.9775   25.6251    6.7667 C.ar    1  UNL1        0.0000
   2483 C           4.4227   32.7989    6.6515 C.ar    1  UNL1        0.0000
   2484 C           5.9554   30.7643    7.8323 C.ar    1  UNL1        0.0000
   2485 C           8.4044   38.8490    5.8146 C.3    49  UNL49       0.0000
   2486 C           1.5985   24.3880    6.5173 C.ar    1  UNL1        0.0000
   2487 C          10.3619   37.4117    5.9431 C.2    49  UNL49       0.0000
   2488 C          -0.3622   25.8272    6.3889 C.ar    1  UNL1        0.0000
   2489 C           6.5823   31.7458    7.0613 C.ar    1  UNL1        0.0000
   2490 C           3.7991   31.8101    7.4126 C.ar    1  UNL1        0.0000
   2491 O           7.7062   33.6359    5.2998 O.3     1  UNL1        0.0000
   2492 O           1.0791   27.7615    7.8168 O.3     1  UNL1        0.0000
   2493 O           2.9160   26.4555    7.8744 O.3     1  UNL1        0.0000
   2494 O           5.7471   34.7413    5.1516 O.3     1  UNL1        0.0000
   2495 N           8.9112   39.1037   25.0635 N.pl3  49  UNL49       0.0000
   2496 N           9.3682   38.3148   27.0485 N.pl3  49  UNL49       0.0000
   2497 C           9.5550   37.8893   24.8809 C.2    49  UNL49       0.0000
   2498 C           9.8427   37.3968   26.1273 C.2    49  UNL49       0.0000
   2499 C          10.6675   39.2691   28.9363 C.3    49  UNL49       0.0000
   2500 C           8.4397   39.9975   23.9987 C.3    49  UNL49       0.0000
   2501 C           8.7998   39.3379   26.3829 C.3    49  UNL49       0.0000
   2502 C           9.5863   38.2771   28.5127 C.3    49  UNL49       0.0000
   2503 H           9.7746   37.4833   23.9016 H      49  UNL49       0.0000
   2504 H          10.3207   36.4721   26.4291 H      49  UNL49       0.0000
   2505 H          11.6226   39.0467   28.4435 H      49  UNL49       0.0000
   2506 H           9.2878   40.2747   23.3636 H      49  UNL49       0.0000
   2507 H          10.3844   40.3025   28.6992 H      49  UNL49       0.0000
   2508 H           7.6803   39.4666   23.4123 H      49  UNL49       0.0000
   2509 H          10.8150   39.1994   30.0224 H      49  UNL49       0.0000
   2510 H           9.8823   37.2479   28.7568 H      49  UNL49       0.0000
   2511 H           8.0015   40.8891   24.4578 H      49  UNL49       0.0000
   2512 H           8.3217   40.1997   26.8312 H      49  UNL49       0.0000
   2513 H           8.6180   38.4729   28.9893 H      49  UNL49       0.0000
   2514 N          14.5351   46.4195   26.9023 N.3    49  UNL49       0.0000
   2515 C          12.1310   46.7841   25.5758 C.3    49  UNL49       0.0000
   2516 C          16.6277   44.9155   26.7608 C.3    49  UNL49       0.0000
   2517 O          12.6162   47.5453   28.0239 O.2    49  UNL49       0.0000
   2518 O          13.7736   48.7332   26.1003 O.2    49  UNL49       0.0000
   2519 O          16.8273   47.5470   26.5076 O.2    49  UNL49       0.0000
   2520 O          15.7758   46.2834   24.6174 O.2    49  UNL49       0.0000
   2521 F          11.4130   45.7904   26.1651 F      49  UNL49       0.0000
   2522 F          16.0144   43.8230   26.2451 F      49  UNL49       0.0000
   2523 F          12.7303   46.2723   24.4734 F      49  UNL49       0.0000
   2524 F          11.2583   47.7562   25.1811 F      49  UNL49       0.0000
   2525 F          16.5349   44.8621   28.1095 F      49  UNL49       0.0000
   2526 F          17.9415   44.8596   26.4184 F      49  UNL49       0.0000
   2527 S          13.3698   47.5028   26.7855 S.O2   49  UNL49       0.0000
   2528 S          15.8977   46.4937   26.0543 S.O2   49  UNL49       0.0000
   2529 TI         -4.5247   23.8311   24.3175 Ti      1  UNL1        0.0000
   2530 TI          6.3058   26.7123   14.9527 Ti      1  UNL1        0.0000
   2531 TI         -0.4280   19.8949   22.4976 Ti      1  UNL1        0.0000
   2532 TI          1.0832   29.0570   16.7245 Ti      1  UNL1        0.0000
   2533 TI          0.0846   30.7353   14.8201 Ti      1  UNL1        0.0000
   2534 TI          1.4602   19.6405   24.4509 Ti      1  UNL1        0.0000
   2535 TI         -3.5755   22.0952   22.4261 Ti      1  UNL1        0.0000
   2536 TI          4.3180   27.0148   16.8002 Ti      1  UNL1        0.0000
   2537 H          -4.0228   27.7282   24.0981 H       1  UNL1        0.0000
   2538 H           7.1146   22.8062   15.2734 H       1  UNL1        0.0000
   2539 H          -8.4846   23.0745   23.9351 H       1  UNL1        0.0000
   2540 H           9.6879   28.7166   15.1534 H       1  UNL1        0.0000
   2541 H           2.4358   15.6060   24.0650 H       1  UNL1        0.0000
   2542 H          -3.9739   30.1454   15.1422 H       1  UNL1        0.0000
   2543 H           0.5791   29.0985   12.9471 H       1  UNL1        0.0000
   2544 H           4.4302   26.4696   13.2528 H       1  UNL1        0.0000
   2545 H           1.9701   18.9734   18.9398 H       1  UNL1        0.0000
   2546 H          -0.6403   30.8940   20.3435 H       1  UNL1        0.0000
   2547 H          -7.6481   25.4838   22.0702 H       1  UNL1        0.0000
   2548 H           9.0605   24.6280   17.2587 H       1  UNL1        0.0000
   2549 H          -5.3470   24.0364   18.7363 H       1  UNL1        0.0000
   2550 H          -3.0155   32.5632   17.1734 H       1  UNL1        0.0000
   2551 H           0.4768   33.8382   15.6756 H       1  UNL1        0.0000
   2552 H           6.9567   20.7874   16.4759 H       1  UNL1        0.0000
   2553 H           3.1758   28.7371   15.3859 H       1  UNL1        0.0000
   2554 H          -1.5087   21.7433   23.7912 H       1  UNL1        0.0000
   2555 H           5.6949   21.5754   22.8406 H       1  UNL1        0.0000
   2556 H           4.2138   21.1063   23.5879 H       1  UNL1        0.0000
   2557 H           6.2690   26.0090   21.7417 H       1  UNL1        0.0000
   2558 H           5.6993   26.3676   20.1231 H       1  UNL1        0.0000
   2559 H           5.2061   16.6206   22.6506 H       1  UNL1        0.0000
   2560 H           3.9270   17.7211   23.1080 H       1  UNL1        0.0000
   2561 C           6.8838   25.9711   17.8163 C.3     1  UNL1        0.0000
   2562 C          -5.4853   24.0925   21.4705 C.3     1  UNL1        0.0000
   2563 C           2.1525   18.8842   21.5728 C.3     1  UNL1        0.0000
   2564 C          -0.8529   31.0275   17.6839 C.3     1  UNL1        0.0000
   2565 C           7.7798   25.3667   18.8114 C.ar    1  UNL1        0.0000
   2566 C          -6.4172   24.7175   20.4935 C.ar    1  UNL1        0.0000
   2567 C           3.0927   18.2698   20.6256 C.ar    1  UNL1        0.0000
   2568 C          -1.7428   31.6743   18.6837 C.2     1  UNL1        0.0000
   2569 C           7.5311   25.4417   20.2179 C.ar    1  UNL1        0.0000
   2570 C          -6.2008   24.5975   19.1054 C.ar    1  UNL1        0.0000
   2571 C           4.2221   17.5095   21.0787 C.ar    1  UNL1        0.0000
   2572 C          -2.8375   32.4473   18.2388 C.3     1  UNL1        0.0000
   2573 C          -1.4883   31.5036   20.0386 C.2     1  UNL1        0.0000
   2574 C           2.8450   18.4020   19.2417 C.ar    1  UNL1        0.0000
   2575 C           8.9135   24.6678   18.3357 C.ar    1  UNL1        0.0000
   2576 C          -7.5173   25.4099   20.9921 C.ar    1  UNL1        0.0000
   2577 C           7.0956   22.8853   13.1293 C.ar    1  UNL1        0.0000
   2578 C           0.6258   34.6769   13.1543 C.2     1  UNL1        0.0000
   2579 C           9.5800   28.6484   13.0033 C.ar    1  UNL1        0.0000
   2580 C          -3.7783   30.1909   12.9839 C.ar    1  UNL1        0.0000
   2581 C           1.8299   26.7138   18.6891 C.3     1  UNL1        0.0000
   2582 C          -2.9262   19.6195   20.6073 C.3     1  UNL1        0.0000
   2583 C           6.9597   24.3402   13.1061 C.3     1  UNL1        0.0000
   2584 C           0.5331   33.2434   13.1168 C.2     1  UNL1        0.0000
   2585 C           8.2822   28.0316   13.0502 C.3     1  UNL1        0.0000
   2586 C          -2.3760   30.6052   13.0084 C.3     1  UNL1        0.0000
   2587 C           7.1349   22.2162   14.3590 C.ar    1  UNL1        0.0000
   2588 C          -4.0119   28.3166   25.0120 C.3     1  UNL1        0.0000
   2589 C          10.2353   28.9232   14.2373 C.ar    1  UNL1        0.0000
   2590 C          -9.0461   22.8951   24.8504 C.ar    1  UNL1        0.0000
   2591 C           5.6397   21.8507   24.8649 C.ar    1  UNL1        0.0000
   2592 C          -4.4755   29.9604   14.1964 C.ar    1  UNL1        0.0000
   2593 C           2.4774   15.0788   25.0141 C.ar    1  UNL1        0.0000
   2594 C           0.6396   35.4281   14.3836 C.3     1  UNL1        0.0000
   2595 N           0.6947   34.8293   15.6218 N.3     1  UNL1        0.0000
   2596 N           5.0606   21.6679   23.6260 N.pl3   1  UNL1        0.0000
   2597 N           6.4502   26.0879   20.7492 N.pl3   1  UNL1        0.0000
   2598 N           4.5531   17.3513   22.3961 N.pl3   1  UNL1        0.0000
   2599 O           5.7075   26.3762   18.1821 O.3     1  UNL1        0.0000
   2600 O          -4.7163   23.1416   21.0722 O.3     1  UNL1        0.0000
   2601 O           2.5339   19.0087   22.7939 O.3     1  UNL1        0.0000
   2602 O          -0.9188   31.4572   16.4843 O.3     1  UNL1        0.0000
   2603 O          -0.0825   30.0703   18.0703 O.3     1  UNL1        0.0000
   2604 O           0.9821   19.2526   21.1673 O.3     1  UNL1        0.0000
   2605 O           7.2957   26.0518   16.6045 O.3     1  UNL1        0.0000
   2606 O          -5.5273   24.5287   22.6702 O.3     1  UNL1        0.0000
   2607 O           4.6232   25.7969   15.6055 O.3     1  UNL1        0.0000
   2608 O          -3.0230   23.6555   23.1706 O.3     1  UNL1        0.0000
   2609 O           5.5620   28.0842   16.0555 O.3     1  UNL1        0.0000
   2610 O          -4.7752   21.9309   23.6632 O.3     1  UNL1        0.0000
   2611 O          -0.1687   18.7229   23.7580 O.3     1  UNL1        0.0000
   2612 O           1.5997   30.6183   15.9861 O.3     1  UNL1        0.0000
   2613 O           0.7852   20.9844   23.2938 O.3     1  UNL1        0.0000
   2614 O          -0.1065   28.8612   15.4686 O.3     1  UNL1        0.0000
   2615 O           2.2025   17.8687   25.0600 O.3     1  UNL1        0.0000
   2616 O           0.4500   32.5419   14.2120 O.2     1  UNL1        0.0000
   2617 O           3.0047   20.6569   25.0549 O.3     1  UNL1        0.0000
   2618 O          -1.7859   30.7062   14.1520 O.3     1  UNL1        0.0000
   2619 O           7.7428   27.7314   14.1982 O.3     1  UNL1        0.0000
   2620 O          -6.4115   23.7710   24.9860 O.3     1  UNL1        0.0000
   2621 O           6.9473   24.9771   14.2276 O.3     1  UNL1        0.0000
   2622 O          -4.1433   25.5534   25.0672 O.2     1  UNL1        0.0000
   2623 O           2.8150   28.1884   16.1066 O.3     1  UNL1        0.0000
   2624 O          -1.8870   21.1846   23.0876 O.3     1  UNL1        0.0000
   2625 O           5.2691   26.9633   13.1738 O.3     1  UNL1        0.0000
   2626 O           0.7014   30.0653   13.0070 O.3     1  UNL1        0.0000
   2627 H           1.9001   22.9027   21.3942 H       1  UNL1        0.0000
   2628 H          -1.9999   17.1830   19.9128 H       1  UNL1        0.0000
   2629 H           2.7326   31.9303   18.6120 H      49  UNL49       0.0000
   2630 H           3.0235   24.6651   19.9935 H       1  UNL1        0.0000
   2631 H          -1.9157   24.7546   20.6453 H       1  UNL1        0.0000
   2632 H          -5.4601   19.7239   19.6868 H       1  UNL1        0.0000
   2633 H          -0.5598   22.9563   21.6842 H       1  UNL1        0.0000
   2634 H          -0.7868   26.5232   19.2686 H       1  UNL1        0.0000
   2635 H           3.8256   29.7431   18.2081 H      49  UNL49       0.0000
   2636 H          -9.7953   29.9441   18.7490 H       9  UNL9        0.0000
   2637 C           1.1829   25.6995   19.5628 C.ar    1  UNL1        0.0000
   2638 C          -0.0693   23.7288   21.0931 C.ar    1  UNL1        0.0000
   2639 C           4.3890   30.5478   18.6811 C.2    49  UNL49       0.0000
   2640 C          -3.6571   18.5587   19.8613 C.ar    1  UNL1        0.0000
   2641 C          -0.2119   25.7325   19.7461 C.ar    1  UNL1        0.0000
   2642 C           1.3208   23.6979   20.9269 C.ar    1  UNL1        0.0000
   2643 C           3.7698   31.7826   18.9092 C.3    49  UNL49       0.0000
   2644 C          -3.0361   17.3216   19.6119 C.ar    1  UNL1        0.0000
   2645 C           5.7272   30.3452   19.0377 C.2    49  UNL49       0.0000
   2646 C          -4.9969   18.7607   19.4835 C.ar    1  UNL1        0.0000
   2647 C           1.9477   24.6794   20.1559 C.ar    1  UNL1        0.0000
   2648 C          -0.8356   24.7437   20.5072 C.ar    1  UNL1        0.0000
   2649 O           3.0715   26.5694   18.3944 O.3     1  UNL1        0.0000
   2650 O          -3.5556   20.6951   20.9114 O.3     1  UNL1        0.0000
   2651 O          -1.7187   19.3891   20.9690 O.3     1  UNL1        0.0000
   2652 O           1.1125   27.6749   18.2463 O.3     1  UNL1        0.0000
   2653 N           4.2765   32.0372   38.1582 N.pl3  49  UNL49       0.0000
   2654 N           4.7336   31.2483   40.1431 N.pl3  49  UNL49       0.0000
   2655 C           4.9204   30.8229   37.9755 C.2    49  UNL49       0.0000
   2656 C           5.2080   30.3303   39.2219 C.2    49  UNL49       0.0000
   2657 C           6.0329   32.2027   42.0309 C.3    49  UNL49       0.0000
   2658 C           3.8050   32.9311   37.0934 C.3    49  UNL49       0.0000
   2659 C           4.1651   32.2715   39.4775 C.3    49  UNL49       0.0000
   2660 C           4.9517   31.2107   41.6073 C.3    49  UNL49       0.0000
   2661 H           5.1399   30.4168   36.9962 H      49  UNL49       0.0000
   2662 H           5.6860   29.4057   39.5238 H      49  UNL49       0.0000
   2663 H           6.9879   31.9803   41.5381 H      49  UNL49       0.0000
   2664 H           4.6531   33.2083   36.4582 H      49  UNL49       0.0000
   2665 H           5.7498   33.2361   41.7938 H      49  UNL49       0.0000
   2666 H           3.0457   32.4002   36.5069 H      49  UNL49       0.0000
   2667 H           6.1804   32.1330   43.1170 H      49  UNL49       0.0000
   2668 H           5.2476   30.1815   41.8514 H      49  UNL49       0.0000
   2669 H           3.3669   33.8227   37.5524 H      49  UNL49       0.0000
   2670 H           3.6870   33.1332   39.9258 H      49  UNL49       0.0000
   2671 H           3.9833   31.4065   42.0839 H      49  UNL49       0.0000
   2672 N           9.9005   39.3531   39.9969 N.3    49  UNL49       0.0000
   2673 C           7.4963   39.7177   38.6704 C.3    49  UNL49       0.0000
   2674 C          11.9930   37.8491   39.8554 C.3    49  UNL49       0.0000
   2675 O           7.9816   40.4789   41.1185 O.2    49  UNL49       0.0000
   2676 O           9.1390   41.6668   39.1949 O.2    49  UNL49       0.0000
   2677 O          12.1927   40.4806   39.6022 O.2    49  UNL49       0.0000
   2678 O          11.1412   39.2170   37.7120 O.2    49  UNL49       0.0000
   2679 F           6.7784   38.7240   39.2597 F      49  UNL49       0.0000
   2680 F          11.3797   36.7566   39.3397 F      49  UNL49       0.0000
   2681 F           8.0956   39.2059   37.5680 F      49  UNL49       0.0000
   2682 F           6.6237   40.6898   38.2757 F      49  UNL49       0.0000
   2683 F          11.9003   37.7956   41.2041 F      49  UNL49       0.0000
   2684 F          13.3069   37.7932   39.5131 F      49  UNL49       0.0000
   2685 S           8.7352   40.4364   39.8801 S.O2   49  UNL49       0.0000
   2686 S          11.2631   39.4273   39.1489 S.O2   49  UNL49       0.0000
   2687 TI         -9.1594   16.7646   37.4121 Ti      1  UNL1        0.0000
   2688 TI          1.6711   19.6459   28.0473 Ti      1  UNL1        0.0000
   2689 TI         -5.0627   12.8284   35.5922 Ti      1  UNL1        0.0000
   2690 TI         -3.5515   21.9906   29.8191 Ti      1  UNL1        0.0000
   2691 TI         -4.5500   23.6689   27.9147 Ti      1  UNL1        0.0000
   2692 TI         -3.1745   12.5741   37.5455 Ti      1  UNL1        0.0000
   2693 TI         -8.2102   15.0288   35.5207 Ti      1  UNL1        0.0000
   2694 TI         -0.3167   19.9484   29.8948 Ti      1  UNL1        0.0000
   2695 H          -8.6575   20.6617   37.1927 H      49  UNL49       0.0000
   2696 H           2.4799   15.7398   28.3680 H       1  UNL1        0.0000
   2697 H         -13.1193   16.0080   37.0297 H      12  UNL12       0.0000
   2698 H           5.0533   21.6502   28.2480 H       1  UNL1        0.0000
   2699 H          -2.1989    8.5396   37.1596 H      49  UNL49       0.0000
   2700 H          -8.6086   23.0790   28.2368 H       1  UNL1        0.0000
   2701 H          -4.0556   22.0321   26.0417 H       1  UNL1        0.0000
   2702 H          -0.2044   19.4032   26.3474 H       1  UNL1        0.0000
   2703 H          -2.6646   11.9070   32.0344 H       1  UNL1        0.0000
   2704 H          -5.2749   23.8276   33.4381 H       1  UNL1        0.0000
   2705 H         -12.2828   18.4174   35.1648 H       1  UNL1        0.0000
   2706 H           4.4259   17.5615   30.3533 H       1  UNL1        0.0000
   2707 H          -9.9817   16.9699   31.8309 H       1  UNL1        0.0000
   2708 H          -7.6501   25.4967   30.2680 H       1  UNL1        0.0000
   2709 H          -4.1578   26.7717   28.7702 H       1  UNL1        0.0000
   2710 H           2.3221   13.7210   29.5705 H       1  UNL1        0.0000
   2711 H          -1.4589   21.6707   28.4805 H       1  UNL1        0.0000
   2712 H          -6.1434   14.6768   36.8858 H       1  UNL1        0.0000
   2713 H           1.0603   14.5090   35.9352 H      49  UNL49       0.0000
   2714 H          -0.4208   14.0399   36.6825 H      49  UNL49       0.0000
   2715 H           1.6344   18.9426   34.8363 H       1  UNL1        0.0000
   2716 H           1.0647   19.3012   33.2178 H       1  UNL1        0.0000
   2717 H           0.5715    9.5541   35.7452 H       1  UNL1        0.0000
   2718 H          -0.7077   10.6547   36.2026 H       1  UNL1        0.0000
   2719 C           2.2492   18.9046   30.9109 C.3     1  UNL1        0.0000
   2720 C         -10.1199   17.0260   34.5651 C.3     1  UNL1        0.0000
   2721 C          -2.4822   11.8177   34.6674 C.3     1  UNL1        0.0000
   2722 C          -5.4876   23.9611   30.7785 C.3     1  UNL1        0.0000
   2723 C           3.1452   18.3003   31.9061 C.ar    1  UNL1        0.0000
   2724 C         -11.0518   17.6510   33.5881 C.ar    1  UNL1        0.0000
   2725 C          -1.5420   11.2034   33.7203 C.ar    1  UNL1        0.0000
   2726 C          -6.3774   24.6079   31.7783 C.2     1  UNL1        0.0000
   2727 C           2.8964   18.3752   33.3125 C.ar    1  UNL1        0.0000
   2728 C         -10.8354   17.5311   32.2000 C.ar    1  UNL1        0.0000
   2729 C          -0.4125   10.4431   34.1733 C.ar    1  UNL1        0.0000
   2730 C          -7.4721   25.3808   31.3334 C.3     1  UNL1        0.0000
   2731 C          -6.1229   24.4371   33.1332 C.2     1  UNL1        0.0000
   2732 C          -1.7897   11.3355   32.3363 C.ar    1  UNL1        0.0000
   2733 C           4.2789   17.6013   31.4304 C.ar    1  UNL1        0.0000
   2734 C         -12.1520   18.3435   34.0868 C.ar    1  UNL1        0.0000
   2735 C           2.4609   15.8189   26.2239 C.ar    1  UNL1        0.0000
   2736 C          -4.0088   27.6105   26.2489 C.2     1  UNL1        0.0000
   2737 C           4.9454   21.5820   26.0979 C.ar    1  UNL1        0.0000
   2738 C          -8.4130   23.1244   26.0785 C.ar    1  UNL1        0.0000
   2739 C          -2.8048   19.6474   31.7837 C.3     1  UNL1        0.0000
   2740 C          -7.5608   12.5530   33.7019 C.3     1  UNL1        0.0000
   2741 C           2.3251   17.2737   26.2007 C.3     1  UNL1        0.0000
   2742 C          -4.1016   26.1769   26.2114 C.2     1  UNL1        0.0000
   2743 C           3.6475   20.9652   26.1448 C.3     1  UNL1        0.0000
   2744 C          -7.0107   23.5388   26.1030 C.3     1  UNL1        0.0000
   2745 C           2.5003   15.1498   27.4536 C.ar    1  UNL1        0.0000
   2746 C          -8.6465   21.2501   38.1066 C.3    50  UNL50       0.0000
   2747 C           5.6007   21.8568   27.3319 C.ar    1  UNL1        0.0000
   2748 C         -13.6807   15.8286   37.9451 C.2    12  UNL12       0.0000
   2749 C           1.0050   14.7843   37.9595 C.2    49  UNL49       0.0000
   2750 C          -9.1102   22.8940   27.2910 C.ar    1  UNL1        0.0000
   2751 C          -2.1572    8.0124   38.1087 C.2    49  UNL49       0.0000
   2752 C          -3.9950   28.3617   27.4782 C.3     1  UNL1        0.0000
   2753 N          -3.9400   27.7628   28.7164 N.3     1  UNL1        0.0000
   2754 N           0.4260   14.6014   36.7206 N.pl3  49  UNL49       0.0000
   2755 N           1.8155   19.0215   33.8438 N.pl3   1  UNL1        0.0000
   2756 N          -0.0815   10.2848   35.4907 N.pl3   1  UNL1        0.0000
   2757 O           1.0728   19.3097   31.2767 O.3     1  UNL1        0.0000
   2758 O          -9.3509   16.0752   34.1668 O.3     1  UNL1        0.0000
   2759 O          -2.1007   11.9422   35.8886 O.3     1  UNL1        0.0000
   2760 O          -5.5535   24.3908   29.5789 O.3     1  UNL1        0.0000
   2761 O          -4.7171   23.0039   31.1650 O.3     1  UNL1        0.0000
   2762 O          -3.6526   12.1862   34.2619 O.3     1  UNL1        0.0000
   2763 O           2.6610   18.9854   29.6991 O.3     1  UNL1        0.0000
   2764 O         -10.1619   17.4623   35.7648 O.3     1  UNL1        0.0000
   2765 O          -0.0115   18.7305   28.7001 O.3     1  UNL1        0.0000
   2766 O          -7.6577   16.5891   36.2652 O.3     1  UNL1        0.0000
   2767 O           0.9273   21.0178   29.1501 O.3     1  UNL1        0.0000
   2768 O          -9.4099   14.8644   36.7579 O.3     1  UNL1        0.0000
   2769 O          -4.8034   11.6565   36.8526 O.3     1  UNL1        0.0000
   2770 O          -3.0349   23.5519   29.0807 O.3     1  UNL1        0.0000
   2771 O          -3.8494   13.9180   36.3884 O.3     1  UNL1        0.0000
   2772 O          -4.7412   21.7948   28.5632 O.3     1  UNL1        0.0000
   2773 O          -2.4321   10.8022   38.1546 O.3     1  UNL1        0.0000
   2774 O          -4.1847   25.4755   27.3066 O.2     1  UNL1        0.0000
   2775 O          -1.6300   13.5904   38.1495 O.3     1  UNL1        0.0000
   2776 O          -6.4206   23.6398   27.2466 O.3     1  UNL1        0.0000
   2777 O           3.1082   20.6650   27.2928 O.3     1  UNL1        0.0000
   2778 O         -11.0461   16.7046   38.0806 O.3     1  UNL1        0.0000
   2779 O           2.3126   17.9107   27.3222 O.3     1  UNL1        0.0000
   2780 O          -8.7779   18.4869   38.1619 O.3     1  UNL1        0.0000
   2781 O          -1.8197   21.1220   29.2012 O.3     1  UNL1        0.0000
   2782 O          -6.5216   14.1181   36.1822 O.3     1  UNL1        0.0000
   2783 O           0.6344   19.8968   26.2684 O.3     1  UNL1        0.0000
   2784 O          -3.9332   22.9989   26.1016 O.3     1  UNL1        0.0000
   2785 H          -2.7345   15.8362   34.4888 H       1  UNL1        0.0000
   2786 H          -6.6345   10.1166   33.0074 H       1  UNL1        0.0000
   2787 H          -1.9020   24.8639   31.7066 H      49  UNL49       0.0000
   2788 H          -1.6112   17.5986   33.0881 H       1  UNL1        0.0000
   2789 H          -6.5504   17.6882   33.7399 H       1  UNL1        0.0000
   2790 H         -10.0947   12.6575   32.7815 H       1  UNL1        0.0000
   2791 H          -5.1944   15.8899   34.7788 H       1  UNL1        0.0000
   2792 H          -5.4214   19.4567   32.3632 H       1  UNL1        0.0000
   2793 H          -0.8090   22.6766   31.3027 H      49  UNL49       0.0000
   2794 H         -14.4299   22.8777   31.8436 H      13  UNL13       0.0000
   2795 C          -3.4517   18.6331   32.6574 C.ar    1  UNL1        0.0000
   2796 C          -4.7039   16.6624   34.1877 C.ar    1  UNL1        0.0000
   2797 C          -0.2456   23.4814   31.7757 C.2    49  UNL49       0.0000
   2798 C          -8.2918   11.4922   32.9559 C.ar    1  UNL1        0.0000
   2799 C          -4.8466   18.6660   32.8407 C.ar    1  UNL1        0.0000
   2800 C          -3.3139   16.6314   34.0215 C.ar    1  UNL1        0.0000
   2801 C          -0.8649   24.7162   32.0038 C.3    49  UNL49       0.0000
   2802 C          -7.6708   10.2551   32.7065 C.ar    1  UNL1        0.0000
   2803 C           1.0926   23.2788   32.1323 C.2    49  UNL49       0.0000
   2804 C          -9.6315   11.6943   32.5781 C.ar    1  UNL1        0.0000
   2805 C          -2.6870   17.6129   33.2505 C.ar    1  UNL1        0.0000
   2806 C          -5.4702   17.6772   33.6018 C.ar    1  UNL1        0.0000
   2807 O          -1.5631   19.5030   31.4890 O.3     1  UNL1        0.0000
   2808 O          -8.1902   13.6287   34.0060 O.3     1  UNL1        0.0000
   2809 O          -6.3533   12.3227   34.0636 O.3     1  UNL1        0.0000
   2810 O          -3.5222   20.6084   31.3409 O.3     1  UNL1        0.0000
   2811 N          -0.3581   24.9708   51.2528 N.pl3  49  UNL49       0.0000
   2812 N           0.0989   24.1819   53.2378 N.pl3  49  UNL49       0.0000
   2813 C           0.2857   23.7565   51.0701 C.2    49  UNL49       0.0000
   2814 C           0.5734   23.2639   52.3165 C.2    49  UNL49       0.0000
   2815 C           1.3982   25.1362   55.1255 C.3    49  UNL49       0.0000
   2816 C          -0.8296   25.8646   50.1880 C.3    49  UNL49       0.0000
   2817 C          -0.4695   25.2050   52.5722 C.3    49  UNL49       0.0000
   2818 C           0.3170   24.1442   54.7019 C.3    49  UNL49       0.0000
   2819 H           0.5053   23.3504   50.0908 H      49  UNL49       0.0000
   2820 H           1.0514   22.3393   52.6184 H      49  UNL49       0.0000
   2821 H           2.3533   24.9139   54.6327 H      49  UNL49       0.0000
   2822 H           0.0185   26.1418   49.5528 H      49  UNL49       0.0000
   2823 H           1.1151   26.1696   54.8884 H      49  UNL49       0.0000
   2824 H          -1.5890   25.3337   49.6015 H      49  UNL49       0.0000
   2825 H           1.5457   25.0665   56.2116 H      49  UNL49       0.0000
   2826 H           0.6130   23.1150   54.9461 H      49  UNL49       0.0000
   2827 H          -1.2678   26.7563   50.6470 H      49  UNL49       0.0000
   2828 H          -0.9476   26.0668   53.0204 H      49  UNL49       0.0000
   2829 H          -0.6513   24.3401   55.1785 H      49  UNL49       0.0000
   2830 N           5.2659   32.2867   53.0915 N.3    49  UNL49       0.0000
   2831 C           2.8617   32.6512   51.7651 C.3    49  UNL49       0.0000
   2832 C           7.3584   30.7826   52.9500 C.3    49  UNL49       0.0000
   2833 O           3.3469   33.4124   54.2131 O.2    49  UNL49       0.0000
   2834 O           4.5043   34.6004   52.2895 O.2    49  UNL49       0.0000
   2835 O           7.5580   33.4142   52.6968 O.2    49  UNL49       0.0000
   2836 O           6.5065   32.1505   50.8066 O.2    49  UNL49       0.0000
   2837 F           2.1437   31.6575   52.3543 F      49  UNL49       0.0000
   2838 F           6.7451   29.6902   52.4343 F      49  UNL49       0.0000
   2839 F           3.4610   32.1394   50.6626 F      49  UNL49       0.0000
   2840 F           1.9890   33.6233   51.3703 F      49  UNL49       0.0000
   2841 F           7.2656   30.7292   54.2987 F      49  UNL49       0.0000
   2842 F           8.6722   30.7267   52.6077 F      49  UNL49       0.0000
   2843 S           4.1005   33.3700   52.9748 S.O2   49  UNL49       0.0000
   2844 S           6.6284   32.3609   52.2436 S.O2   49  UNL49       0.0000
   2845 TI         29.1434    1.1152   11.4255 Ti      1  UNL1        0.0000
   2846 TI         39.9739    3.9964    2.0607 Ti      1  UNL1        0.0000
   2847 TI         33.2401   -2.8210    9.6056 Ti      1  UNL1        0.0000
   2848 TI         34.7513    6.3412    3.8325 Ti      1  UNL1        0.0000
   2849 TI         33.7527    8.0195    1.9281 Ti      1  UNL1        0.0000
   2850 TI         35.1283   -3.0753   11.5589 Ti      1  UNL1        0.0000
   2851 TI         30.0926   -0.6207    9.5341 Ti      1  UNL1        0.0000
   2852 TI         37.9861    4.2990    3.9082 Ti      1  UNL1        0.0000
   2853 H          29.6453    5.0123   11.2061 H       1  UNL1        0.0000
   2854 H          40.7827    0.0904    2.3814 H       1  UNL1        0.0000
   2855 H          25.1835    0.3586   11.0431 H       1  UNL1        0.0000
   2856 H          43.3561    6.0007    2.2614 H       1  UNL1        0.0000
   2857 H          36.1039   -7.1098   11.1730 H       1  UNL1        0.0000
   2858 H          29.6942    7.4296    2.2502 H       1  UNL1        0.0000
   2859 H          34.2472    6.3827    0.0551 H       1  UNL1        0.0000
   2860 H          38.0984    3.7538    0.3608 H       1  UNL1        0.0000
   2861 H          35.6382   -3.7424    6.0478 H       1  UNL1        0.0000
   2862 H          33.0279    8.1782    7.4515 H       1  UNL1        0.0000
   2863 H          26.0200    2.7680    9.1781 H       1  UNL1        0.0000
   2864 H          42.7287    1.9121    4.3667 H       1  UNL1        0.0000
   2865 H          28.3211    1.3205    5.8443 H       1  UNL1        0.0000
   2866 H          30.6527    9.8473    4.2814 H       1  UNL1        0.0000
   2867 H          34.1450   11.1223    2.7836 H       1  UNL1        0.0000
   2868 H          40.6249   -1.9284    3.5839 H      51  UNL51       0.0000
   2869 H          36.8439    6.0213    2.4939 H       1  UNL1        0.0000
   2870 H          32.1594   -0.9726   10.8992 H       1  UNL1        0.0000
   2871 H          39.3631   -1.1405    9.9486 H       1  UNL1        0.0000
   2872 H          37.8819   -1.6095   10.6959 H       1  UNL1        0.0000
   2873 H          39.9372    3.2932    8.8497 H       1  UNL1        0.0000
   2874 H          39.3675    3.6518    7.2311 H       1  UNL1        0.0000
   2875 H          38.8743   -6.0953    9.7586 H       1  UNL1        0.0000
   2876 H          37.5951   -4.9947   10.2159 H       1  UNL1        0.0000
   2877 C          40.5519    3.2552    4.9243 C.2     1  UNL1        0.0000
   2878 C          28.1829    1.3766    8.5785 C.3     1  UNL1        0.0000
   2879 C          35.8206   -3.8317    8.6808 C.3     1  UNL1        0.0000
   2880 C          32.8152    8.3117    4.7919 C.3     1  UNL1        0.0000
   2881 C          41.4480    2.6509    5.9194 C.2     1  UNL1        0.0000
   2882 C          27.2510    2.0016    7.6015 C.ar    1  UNL1        0.0000
   2883 C          36.7608   -4.4460    7.7336 C.2     1  UNL1        0.0000
   2884 C          31.9254    8.9585    5.7917 C.ar    1  UNL1        0.0000
   2885 C          41.1992    2.7258    7.3259 C.3     1  UNL1        0.0000
   2886 C          27.4674    1.8817    6.2134 C.ar    1  UNL1        0.0000
   2887 C          37.8903   -5.2063    8.1867 C.2     1  UNL1        0.0000
   2888 C          30.8307    9.7314    5.3467 C.ar    1  UNL1        0.0000
   2889 C          32.1799    8.7877    7.1466 C.ar    1  UNL1        0.0000
   2890 C          36.5131   -4.3139    6.3497 C.3     1  UNL1        0.0000
   2891 C          42.5816    1.9519    5.4437 C.3     1  UNL1        0.0000
   2892 C          26.1508    2.6940    8.1001 C.ar    1  UNL1        0.0000
   2893 C          40.7637    0.1695    0.2373 C.2     1  UNL1        0.0000
   2894 C          34.2940   11.9611    0.2623 C.2     1  UNL1        0.0000
   2895 C          43.2482    5.9326    0.1113 C.2     1  UNL1        0.0000
   2896 C          29.8898    7.4750    0.0919 C.2     1  UNL1        0.0000
   2897 C          35.4980    3.9980    5.7971 C.3     1  UNL1        0.0000
   2898 C          30.7419   -3.0964    7.7153 C.2     1  UNL1        0.0000
   2899 C          40.6279    1.6243    0.2141 C.2     1  UNL1        0.0000
   2900 C          34.2012   10.5275    0.2248 C.2     1  UNL1        0.0000
   2901 C          41.9503    5.3157    0.1582 C.2     1  UNL1        0.0000
   2902 C          31.2921    7.8894    0.1164 C.2     1  UNL1        0.0000
   2903 C          40.8031   -0.4997    1.4670 C.3     1  UNL1        0.0000
   2904 C          29.6562    5.6007   12.1200 C.ar    1  UNL1        0.0000
   2905 C          43.9035    6.2074    1.3453 C.3     1  UNL1        0.0000
   2906 C          24.6220    0.1792   11.9584 C.ar    1  UNL1        0.0000
   2907 C          39.3078   -0.8651   11.9729 C.3     1  UNL1        0.0000
   2908 C          29.1926    7.2446    1.3044 C.2     1  UNL1        0.0000
   2909 C          36.1456   -7.6370   12.1221 C.3     1  UNL1        0.0000
   2910 C          34.3078   12.7122    1.4916 C.2     1  UNL1        0.0000
   2911 N          34.3628   12.1134    2.7298 N.pl3   1  UNL1        0.0000
   2912 N          38.7288   -1.0480   10.7340 N.3     1  UNL1        0.0000
   2913 N          40.1183    3.3720    7.8572 N.3     1  UNL1        0.0000
   2914 N          38.2213   -5.3646    9.5041 N.pl3   1  UNL1        0.0000
   2915 O          39.3756    3.6603    5.2900 O.2     1  UNL1        0.0000
   2916 O          28.9519    0.4258    8.1802 O.3     1  UNL1        0.0000
   2917 O          36.2021   -3.7072    9.9019 O.3     1  UNL1        0.0000
   2918 O          32.7493    8.7413    3.5923 O.3     1  UNL1        0.0000
   2919 O          33.5857    7.3545    5.1783 O.3     1  UNL1        0.0000
   2920 O          34.6502   -3.4632    8.2753 O.3     1  UNL1        0.0000
   2921 O          40.9638    3.3360    3.7125 O.2     1  UNL1        0.0000
   2922 O          28.1409    1.8129    9.7782 O.3     1  UNL1        0.0000
   2923 O          38.2913    3.0811    2.7135 O.3     1  UNL1        0.0000
   2924 O          30.6451    0.9397   10.2786 O.3     1  UNL1        0.0000
   2925 O          39.2301    5.3684    3.1635 O.3     1  UNL1        0.0000
   2926 O          28.8929   -0.7850   10.7712 O.3     1  UNL1        0.0000
   2927 O          33.4994   -3.9929   10.8660 O.3     1  UNL1        0.0000
   2928 O          35.2679    7.9025    3.0940 O.3     1  UNL1        0.0000
   2929 O          34.4534   -1.7314   10.4018 O.3     1  UNL1        0.0000
   2930 O          33.5616    6.1454    2.5766 O.3     1  UNL1        0.0000
   2931 O          35.8707   -4.8472   12.1680 O.2     1  UNL1        0.0000
   2932 O          34.1181    9.8261    1.3200 O.2     1  UNL1        0.0000
   2933 O          36.6728   -2.0590   12.1629 O.2     1  UNL1        0.0000
   2934 O          31.8822    7.9904    1.2600 O.2     1  UNL1        0.0000
   2935 O          41.4110    5.0156    1.3062 O.2     1  UNL1        0.0000
   2936 O          27.2567    1.0552   12.0940 O.3     1  UNL1        0.0000
   2937 O          40.6154    2.2612    1.3356 O.2     1  UNL1        0.0000
   2938 O          29.5249    2.8375   12.1752 O.3     1  UNL1        0.0000
   2939 O          36.4831    5.4725    3.2146 O.3     1  UNL1        0.0000
   2940 O          31.7812   -1.5313   10.1956 O.3     1  UNL1        0.0000
   2941 O          38.9372    4.2474    0.2818 O.3     1  UNL1        0.0000
   2942 O          34.3696    7.3495    0.1150 O.3     1  UNL1        0.0000
   2943 H          35.5682    0.1868    8.5021 H       1  UNL1        0.0000
   2944 H          31.6683   -5.5329    7.0208 H       1  UNL1        0.0000
   2945 H          36.4008    9.2145    5.7200 H      49  UNL49       0.0000
   2946 H          36.6916    1.9492    7.1015 H       1  UNL1        0.0000
   2947 H          31.7524    2.0388    7.7533 H       1  UNL1        0.0000
   2948 H          28.2081   -2.9920    6.7948 H       1  UNL1        0.0000
   2949 H          33.1083    0.2404    8.7922 H       1  UNL1        0.0000
   2950 H          32.8814    3.8073    6.3766 H       1  UNL1        0.0000
   2951 H          37.4938    7.0272    5.3161 H      49  UNL49       0.0000
   2952 H          23.8728    7.2283    5.8570 H       1  UNL1        0.0000
   2953 C          34.8510    2.9837    6.6708 C.ar    1  UNL1        0.0000
   2954 C          33.5989    1.0130    8.2011 C.ar    1  UNL1        0.0000
   2955 C          38.0571    7.8320    5.7891 C.2    49  UNL49       0.0000
   2956 C          30.0110   -4.1572    6.9693 C.2     1  UNL1        0.0000
   2957 C          33.4562    3.0166    6.8541 C.ar    1  UNL1        0.0000
   2958 C          34.9889    0.9820    8.0349 C.ar    1  UNL1        0.0000
   2959 C          37.4379    9.0667    6.0172 C.2    49  UNL49       0.0000
   2960 C          30.6320   -5.3943    6.7199 C.3     1  UNL1        0.0000
   2961 C          39.3954    7.6294    6.1457 C.3    49  UNL49       0.0000
   2962 C          28.6713   -3.9551    6.5915 C.3     1  UNL1        0.0000
   2963 C          35.6158    1.9635    7.2639 C.ar    1  UNL1        0.0000
   2964 C          32.8326    2.0278    7.6152 C.ar    1  UNL1        0.0000
   2965 O          36.7397    3.8536    5.5024 O.3     1  UNL1        0.0000
   2966 O          30.1126   -2.0208    8.0194 O.2     1  UNL1        0.0000
   2967 O          31.9495   -3.3267    8.0770 O.2     1  UNL1        0.0000
   2968 O          34.7806    4.9590    5.3543 O.3     1  UNL1        0.0000
   2969 N          37.9446    9.3214   25.2661 N.pl3  49  UNL49       0.0000
   2970 N          38.4017    8.5325   27.2511 N.pl3  49  UNL49       0.0000
   2971 C          38.5885    8.1070   25.0835 C.2    49  UNL49       0.0000
   2972 C          38.8762    7.6145   26.3299 C.2    49  UNL49       0.0000
   2973 C          39.7010    9.4868   29.1389 C.3    49  UNL49       0.0000
   2974 C          37.4732   10.2152   24.2013 C.3    49  UNL49       0.0000
   2975 C          37.8333    9.5556   26.5855 C.3    49  UNL49       0.0000
   2976 C          38.6198    8.4948   28.7153 C.3    49  UNL49       0.0000
   2977 H          38.8081    7.7010   24.1042 H      49  UNL49       0.0000
   2978 H          39.3542    6.6899   26.6318 H      49  UNL49       0.0000
   2979 H          40.6561    9.2645   28.6461 H      49  UNL49       0.0000
   2980 H          38.3213   10.4924   23.5662 H      49  UNL49       0.0000
   2981 H          39.4179   10.5202   28.9018 H      49  UNL49       0.0000
   2982 H          36.7138    9.6843   23.6149 H      49  UNL49       0.0000
   2983 H          39.8485    9.4171   30.2250 H      49  UNL49       0.0000
   2984 H          38.9158    7.4656   28.9594 H      49  UNL49       0.0000
   2985 H          37.0350   11.1068   24.6604 H      49  UNL49       0.0000
   2986 H          37.3552   10.4174   27.0338 H      49  UNL49       0.0000
   2987 H          37.6515    8.6906   29.1919 H      49  UNL49       0.0000
   2988 N          43.5686   16.6373   27.1049 N.3    49  UNL49       0.0000
   2989 C          41.1645   17.0018   25.7784 C.3    49  UNL49       0.0000
   2990 C          45.6612   15.1332   26.9634 C.3    49  UNL49       0.0000
   2991 O          41.6497   17.7630   28.2265 O.2    49  UNL49       0.0000
   2992 O          42.8071   18.9509   26.3029 O.2    49  UNL49       0.0000
   2993 O          45.8608   17.7648   26.7102 O.2    49  UNL49       0.0000
   2994 O          44.8093   16.5011   24.8200 O.2    49  UNL49       0.0000
   2995 F          40.4465   16.0081   26.3677 F      49  UNL49       0.0000
   2996 F          45.0479   14.0408   26.4477 F      49  UNL49       0.0000
   2997 F          41.7638   16.4900   24.6760 F      49  UNL49       0.0000
   2998 F          40.2918   17.9739   25.3837 F      49  UNL49       0.0000
   2999 F          45.5684   15.0798   28.3121 F      49  UNL49       0.0000
   3000 F          46.9750   15.0773   26.6210 F      49  UNL49       0.0000
   3001 S          42.4033   17.7206   26.9881 S.O2   49  UNL49       0.0000
   3002 S          44.9312   16.7115   26.2569 S.O2   49  UNL49       0.0000
   3003 TI         24.5088   -5.9512   24.5201 Ti      1  UNL1        0.0000
   3004 TI         35.3393   -3.0700   15.1553 Ti      1  UNL1        0.0000
   3005 TI         28.6055   -9.8874   22.7002 Ti      1  UNL1        0.0000
   3006 TI         30.1167   -0.7253   16.9271 Ti      1  UNL1        0.0000
   3007 TI         29.1181    0.9530   15.0227 Ti      1  UNL1        0.0000
   3008 TI         30.4937  -10.1417   24.6535 Ti      1  UNL1        0.0000
   3009 TI         25.4580   -7.6871   22.6287 Ti      1  UNL1        0.0000
   3010 TI         33.3514   -2.7674   17.0028 Ti      1  UNL1        0.0000
   3011 H          25.0107   -2.0541   24.3007 H       1  UNL1        0.0000
   3012 H          36.1480   -6.9760   15.4760 H       1  UNL1        0.0000
   3013 H          20.5489   -6.7078   24.1377 H       1  UNL1        0.0000
   3014 H          38.7214   -1.0657   15.3560 H       1  UNL1        0.0000
   3015 H          31.4693  -14.1763   24.2676 H       1  UNL1        0.0000
   3016 H          25.0596    0.3631   15.3448 H       1  UNL1        0.0000
   3017 H          29.6126   -0.6838   13.1497 H       1  UNL1        0.0000
   3018 H          33.4637   -3.3127   13.4554 H       1  UNL1        0.0000
   3019 H          31.0036  -10.8089   19.1424 H       1  UNL1        0.0000
   3020 H          28.3932    1.1118   20.5461 H       1  UNL1        0.0000
   3021 H          21.3854   -4.2985   22.2728 H       1  UNL1        0.0000
   3022 H          38.0940   -5.1543   17.4613 H       1  UNL1        0.0000
   3023 H          23.6865   -5.7459   18.9389 H       1  UNL1        0.0000
   3024 H          26.0180    2.7809   17.3760 H       1  UNL1        0.0000
   3025 H          29.5103    4.0559   15.8782 H       1  UNL1        0.0000
   3026 H          35.9902   -8.9949   16.6785 H      52  UNL52       0.0000
   3027 H          32.2093   -1.0451   15.5885 H       1  UNL1        0.0000
   3028 H          27.5248   -8.0390   23.9938 H       1  UNL1        0.0000
   3029 H          34.7284   -8.2069   23.0432 H       1  UNL1        0.0000
   3030 H          33.2473   -8.6760   23.7905 H       1  UNL1        0.0000
   3031 H          35.3025   -3.7733   21.9443 H       1  UNL1        0.0000
   3032 H          34.7328   -3.4147   20.3257 H       1  UNL1        0.0000
   3033 H          34.2396  -13.1617   22.8532 H       1  UNL1        0.0000
   3034 H          32.9605  -12.0611   23.3106 H       1  UNL1        0.0000
   3035 C          35.9173   -3.8112   18.0189 C.2     1  UNL1        0.0000
   3036 C          23.5482   -5.6898   21.6731 C.3     1  UNL1        0.0000
   3037 C          31.1860  -10.8981   21.7754 C.3     1  UNL1        0.0000
   3038 C          28.1806    1.2452   17.8865 C.3     1  UNL1        0.0000
   3039 C          36.8133   -4.4155   19.0141 C.2     1  UNL1        0.0000
   3040 C          22.6163   -5.0648   20.6961 C.ar    1  UNL1        0.0000
   3041 C          32.1262  -11.5125   20.8283 C.2     1  UNL1        0.0000
   3042 C          27.2907    1.8920   18.8863 C.ar    1  UNL1        0.0000
   3043 C          36.5646   -4.3406   20.4205 C.3     1  UNL1        0.0000
   3044 C          22.8327   -5.1848   19.3080 C.ar    1  UNL1        0.0000
   3045 C          33.2556  -12.2728   21.2813 C.2     1  UNL1        0.0000
   3046 C          26.1960    2.6650   18.4414 C.ar    1  UNL1        0.0000
   3047 C          27.5452    1.7213   20.2412 C.ar    1  UNL1        0.0000
   3048 C          31.8785  -11.3803   19.4443 C.3     1  UNL1        0.0000
   3049 C          37.9470   -5.1145   18.5383 C.3     1  UNL1        0.0000
   3050 C          21.5162   -4.3724   21.1947 C.ar    1  UNL1        0.0000
   3051 C          36.1291   -6.8970   13.3319 C.2     1  UNL1        0.0000
   3052 C          29.6593    4.8946   13.3569 C.ar    1  UNL1        0.0000
   3053 C          38.6135   -1.1339   13.2059 C.2     1  UNL1        0.0000
   3054 C          25.2552    0.4086   13.1865 C.ar    1  UNL1        0.0000
   3055 C          30.8634   -3.0684   18.8917 C.3     1  UNL1        0.0000
   3056 C          26.1073  -10.1628   20.8099 C.2     1  UNL1        0.0000
   3057 C          35.9932   -5.4421   13.3087 C.2     1  UNL1        0.0000
   3058 C          29.5666    3.4611   13.3194 C.3     1  UNL1        0.0000
   3059 C          37.3157   -1.7507   13.2528 C.2     1  UNL1        0.0000
   3060 C          26.6575    0.8229   13.2110 C.3     1  UNL1        0.0000
   3061 C          36.1684   -7.5661   14.5616 C.3     1  UNL1        0.0000
   3062 C          25.0216   -1.4657   25.2146 C.ar    1  UNL1        0.0000
   3063 C          39.2688   -0.8591   14.4399 C.3     1  UNL1        0.0000
   3064 C          19.9874   -6.8872   25.0530 C.ar    1  UNL1        0.0000
   3065 C          34.6732   -7.9316   25.0675 C.3     1  UNL1        0.0000
   3066 C          24.5580    0.1782   14.3990 C.ar    1  UNL1        0.0000
   3067 C          31.5109  -14.7034   25.2167 C.3     1  UNL1        0.0000
   3068 C          29.6731    5.6458   14.5862 C.ar    1  UNL1        0.0000
   3069 N          29.7282    5.0470   15.8244 N.pl3   1  UNL1        0.0000
   3070 N          34.0941   -8.1144   23.8286 N.3     1  UNL1        0.0000
   3071 N          35.4837   -3.6944   20.9518 N.3     1  UNL1        0.0000
   3072 N          33.5866  -12.4310   22.5987 N.pl3   1  UNL1        0.0000
   3073 O          34.7410   -3.4061   18.3847 O.2     1  UNL1        0.0000
   3074 O          24.3172   -6.6407   21.2748 O.3     1  UNL1        0.0000
   3075 O          31.5674  -10.7736   22.9966 O.3     1  UNL1        0.0000
   3076 O          28.1147    1.6749   16.6869 O.3     1  UNL1        0.0000
   3077 O          28.9510    0.2880   18.2729 O.3     1  UNL1        0.0000
   3078 O          30.0156  -10.5297   21.3699 O.3     1  UNL1        0.0000
   3079 O          36.3292   -3.7305   16.8071 O.2     1  UNL1        0.0000
   3080 O          23.5062   -5.2536   22.8728 O.3     1  UNL1        0.0000
   3081 O          33.6567   -3.9853   15.8081 O.3     1  UNL1        0.0000
   3082 O          26.0105   -6.1267   23.3732 O.3     1  UNL1        0.0000
   3083 O          34.5955   -1.6981   16.2581 O.3     1  UNL1        0.0000
   3084 O          24.2583   -7.8514   23.8659 O.3     1  UNL1        0.0000
   3085 O          28.8648  -11.0594   23.9606 O.3     1  UNL1        0.0000
   3086 O          30.6332    0.8360   16.1887 O.3     1  UNL1        0.0000
   3087 O          29.8187   -8.7979   23.4964 O.3     1  UNL1        0.0000
   3088 O          28.9270   -0.9211   15.6712 O.3     1  UNL1        0.0000
   3089 O          31.2360  -11.9136   25.2626 O.2     1  UNL1        0.0000
   3090 O          29.4835    2.7597   14.4146 O.3     1  UNL1        0.0000
   3091 O          32.0382   -9.1254   25.2575 O.2     1  UNL1        0.0000
   3092 O          27.2475    0.9239   14.3546 O.3     1  UNL1        0.0000
   3093 O          36.7763   -2.0509   14.4008 O.2     1  UNL1        0.0000
   3094 O          22.6220   -6.0113   25.1886 O.3     1  UNL1        0.0000
   3095 O          35.9808   -4.8052   14.4302 O.2     1  UNL1        0.0000
   3096 O          24.8902   -4.2289   25.2699 O.3     1  UNL1        0.0000
   3097 O          31.8485   -1.5939   16.3092 O.3     1  UNL1        0.0000
   3098 O          27.1465   -8.5977   23.2902 O.3     1  UNL1        0.0000
   3099 O          34.3026   -2.8190   13.3764 O.3     1  UNL1        0.0000
   3100 O          29.7349    0.2830   13.2096 O.3     1  UNL1        0.0000
   3101 H          30.9336   -6.8796   21.5968 H       1  UNL1        0.0000
   3102 H          27.0336  -12.5993   20.1154 H       1  UNL1        0.0000
   3103 H          31.7661    2.1480   18.8146 H      49  UNL49       0.0000
   3104 H          32.0570   -5.1172   20.1961 H       1  UNL1        0.0000
   3105 H          27.1178   -5.0276   20.8479 H       1  UNL1        0.0000
   3106 H          23.5734  -10.0584   19.8895 H       1  UNL1        0.0000
   3107 H          28.4737   -6.8260   21.8868 H       1  UNL1        0.0000
   3108 H          28.2467   -3.2591   19.4712 H       1  UNL1        0.0000
   3109 H          32.8591   -0.0392   18.4107 H      49  UNL49       0.0000
   3110 H          19.2382    0.1618   18.9516 H       1  UNL1        0.0000
   3111 C          30.2164   -4.0828   19.7654 C.ar    1  UNL1        0.0000
   3112 C          28.9642   -6.0535   21.2957 C.ar    1  UNL1        0.0000
   3113 C          33.4225    0.7655   18.8837 C.2    49  UNL49       0.0000
   3114 C          25.3763  -11.2236   20.0639 C.2     1  UNL1        0.0000
   3115 C          28.8216   -4.0498   19.9487 C.ar    1  UNL1        0.0000
   3116 C          30.3542   -6.0844   21.1295 C.ar    1  UNL1        0.0000
   3117 C          32.8033    2.0003   19.1118 C.2    49  UNL49       0.0000
   3118 C          25.9974  -12.4607   19.8145 C.3     1  UNL1        0.0000
   3119 C          34.7607    0.5629   19.2403 C.3    49  UNL49       0.0000
   3120 C          24.0366  -11.0216   19.6861 C.3     1  UNL1        0.0000
   3121 C          30.9812   -5.1029   20.3585 C.ar    1  UNL1        0.0000
   3122 C          28.1979   -5.0386   20.7098 C.ar    1  UNL1        0.0000
   3123 O          32.1050   -3.2129   18.5970 O.3     1  UNL1        0.0000
   3124 O          25.4779   -9.0872   21.1140 O.2     1  UNL1        0.0000
   3125 O          27.3148  -10.3932   21.1716 O.2     1  UNL1        0.0000
   3126 O          30.1460   -2.1074   18.4489 O.3     1  UNL1        0.0000
   3127 N          33.3100    2.2549   38.3608 N.pl3  49  UNL49       0.0000
   3128 N          33.7671    1.4660   40.3458 N.pl3  49  UNL49       0.0000
   3129 C          33.9539    1.0406   38.1781 C.2    49  UNL49       0.0000
   3130 C          34.2415    0.5480   39.4245 C.2    49  UNL49       0.0000
   3131 C          35.0664    2.4204   42.2335 C.3    49  UNL49       0.0000
   3132 C          32.8385    3.1488   37.2960 C.3    49  UNL49       0.0000
   3133 C          33.1986    2.4892   39.6802 C.3    49  UNL49       0.0000
   3134 C          33.9852    1.4284   41.8099 C.3    49  UNL49       0.0000
   3135 H          34.1734    0.6345   37.1988 H      49  UNL49       0.0000
   3136 H          34.7195   -0.3766   39.7264 H      49  UNL49       0.0000
   3137 H          36.0214    2.1980   41.7407 H      49  UNL49       0.0000
   3138 H          33.6866    3.4260   36.6608 H      49  UNL49       0.0000
   3139 H          34.7833    3.4538   41.9964 H      49  UNL49       0.0000
   3140 H          32.0792    2.6179   36.7095 H      49  UNL49       0.0000
   3141 H          35.2139    2.3507   43.3196 H      49  UNL49       0.0000
   3142 H          34.2811    0.3992   42.0541 H      49  UNL49       0.0000
   3143 H          32.4004    4.0404   37.7550 H      49  UNL49       0.0000
   3144 H          32.7205    3.3510   40.1284 H      49  UNL49       0.0000
   3145 H          33.0168    1.6242   42.2865 H      49  UNL49       0.0000
   3146 N          38.9340    9.5708   40.1995 N.3    49  UNL49       0.0000
   3147 C          36.5298    9.9354   38.8730 C.3    49  UNL49       0.0000
   3148 C          41.0265    8.0668   40.0580 C.3    49  UNL49       0.0000
   3149 O          37.0151   10.6966   41.3211 O.2    49  UNL49       0.0000
   3150 O          38.1725   11.8845   39.3975 O.2    49  UNL49       0.0000
   3151 O          41.2262   10.6983   39.8048 O.2    49  UNL49       0.0000
   3152 O          40.1747    9.4347   37.9146 O.2    49  UNL49       0.0000
   3153 F          35.8119    8.9417   39.4623 F      49  UNL49       0.0000
   3154 F          40.4132    6.9743   39.5423 F      49  UNL49       0.0000
   3155 F          37.1291    9.4236   37.7706 F      49  UNL49       0.0000
   3156 F          35.6572   10.9075   38.4783 F      49  UNL49       0.0000
   3157 F          40.9338    8.0134   41.4067 F      49  UNL49       0.0000
   3158 F          42.3404    8.0109   39.7157 F      49  UNL49       0.0000
   3159 S          37.7687   10.6541   40.0827 S.O2   49  UNL49       0.0000
   3160 S          40.2966    9.6450   39.3516 S.O2   49  UNL49       0.0000
   3161 TI         19.8741  -13.0176   37.6148 Ti      1  UNL1        0.0000
   3162 TI         30.7046  -10.1364   28.2499 Ti      1  UNL1        0.0000
   3163 TI         23.9708  -16.9538   35.7948 Ti      1  UNL1        0.0000
   3164 TI         25.4820   -7.7917   30.0217 Ti      1  UNL1        0.0000
   3165 TI         24.4834   -6.1134   28.1174 Ti      1  UNL1        0.0000
   3166 TI         25.8590  -17.2082   37.7481 Ti      1  UNL1        0.0000
   3167 TI         20.8233  -14.7535   35.7233 Ti      1  UNL1        0.0000
   3168 TI         28.7168   -9.8339   30.0974 Ti      1  UNL1        0.0000
   3169 H          20.3760   -9.1206   37.3953 H      49  UNL49       0.0000
   3170 H          31.5134  -14.0425   28.5706 H       1  UNL1        0.0000
   3171 H          15.9142  -13.7743   37.2323 H      15  UNL15       0.0000
   3172 H          34.0868   -8.1321   28.4506 H       1  UNL1        0.0000
   3173 H          26.8346  -21.2427   37.3622 H      49  UNL49       0.0000
   3174 H          20.4249   -6.7033   28.4394 H       1  UNL1        0.0000
   3175 H          24.9779   -7.7502   26.2443 H       1  UNL1        0.0000
   3176 H          28.8291  -10.3791   26.5500 H       1  UNL1        0.0000
   3177 H          26.3689  -17.8753   32.2370 H       1  UNL1        0.0000
   3178 H          23.7586   -5.9547   33.6407 H       1  UNL1        0.0000
   3179 H          16.7507  -11.3649   35.3674 H       1  UNL1        0.0000
   3180 H          33.4594  -12.2208   30.5559 H       1  UNL1        0.0000
   3181 H          19.0518  -12.8123   32.0335 H       1  UNL1        0.0000
   3182 H          21.3834   -4.2855   30.4706 H       1  UNL1        0.0000
   3183 H          24.8757   -3.0106   28.9728 H       1  UNL1        0.0000
   3184 H          31.3556  -16.0613   29.7731 H      53  UNL53       0.0000
   3185 H          27.5746   -8.1116   28.6831 H       1  UNL1        0.0000
   3186 H          22.8901  -15.1054   37.0884 H       1  UNL1        0.0000
   3187 H          30.0938  -15.2733   36.1378 H      49  UNL49       0.0000
   3188 H          28.6127  -15.7424   36.8851 H      49  UNL49       0.0000
   3189 H          30.6679  -10.8397   35.0389 H       1  UNL1        0.0000
   3190 H          30.0982  -10.4811   33.4204 H       1  UNL1        0.0000
   3191 H          29.6050  -20.2282   35.9478 H       1  UNL1        0.0000
   3192 H          28.3258  -19.1276   36.4052 H       1  UNL1        0.0000
   3193 C          31.2827  -10.8777   31.1135 C.2     1  UNL1        0.0000
   3194 C          18.9136  -12.7563   34.7677 C.3     1  UNL1        0.0000
   3195 C          26.5513  -17.9645   34.8701 C.3     1  UNL1        0.0000
   3196 C          23.5459   -5.8212   30.9811 C.3     1  UNL1        0.0000
   3197 C          32.1787  -11.4820   32.1087 C.2     1  UNL1        0.0000
   3198 C          17.9817  -12.1312   33.7907 C.ar    1  UNL1        0.0000
   3199 C          27.4915  -18.5789   33.9229 C.2     1  UNL1        0.0000
   3200 C          22.6561   -5.1744   31.9809 C.ar    1  UNL1        0.0000
   3201 C          31.9299  -11.4071   33.5151 C.3     1  UNL1        0.0000
   3202 C          18.1981  -12.2512   32.4027 C.ar    1  UNL1        0.0000
   3203 C          28.6210  -19.3392   34.3759 C.2     1  UNL1        0.0000
   3204 C          21.5614   -4.4014   31.5360 C.ar    1  UNL1        0.0000
   3205 C          22.9106   -5.3452   33.3358 C.ar    1  UNL1        0.0000
   3206 C          27.2438  -18.4468   32.5389 C.3     1  UNL1        0.0000
   3207 C          33.3124  -12.1810   31.6330 C.3     1  UNL1        0.0000
   3208 C          16.8815  -11.4388   34.2894 C.ar    1  UNL1        0.0000
   3209 C          31.4944  -13.9634   26.4265 C.2     1  UNL1        0.0000
   3210 C          25.0247   -2.1718   26.4515 C.ar    1  UNL1        0.0000
   3211 C          33.9789   -8.2003   26.3005 C.2     1  UNL1        0.0000
   3212 C          20.6205   -6.6579   26.2811 C.ar    1  UNL1        0.0000
   3213 C          26.2287  -10.1349   31.9863 C.3     1  UNL1        0.0000
   3214 C          21.4727  -17.2293   33.9045 C.2     1  UNL1        0.0000
   3215 C          31.3586  -12.5086   26.4033 C.2     1  UNL1        0.0000
   3216 C          24.9319   -3.6053   26.4141 C.3     1  UNL1        0.0000
   3217 C          32.6810   -8.8171   26.3474 C.2     1  UNL1        0.0000
   3218 C          22.0228   -6.2435   26.3056 C.3     1  UNL1        0.0000
   3219 C          31.5338  -14.6325   27.6562 C.3     1  UNL1        0.0000
   3220 C          20.3869   -8.5322   38.3092 C.2    49  UNL49       0.0000
   3221 C          34.6342   -7.9255   27.5345 C.3     1  UNL1        0.0000
   3222 C          15.3528  -13.9536   38.1477 C.2    15  UNL15       0.0000
   3223 C          30.0385  -14.9980   38.1622 C.3    49  UNL49       0.0000
   3224 C          19.9233   -6.8883   27.4936 C.ar    1  UNL1        0.0000
   3225 C          26.8763  -21.7699   38.3113 C.3    54  UNL54       0.0000
   3226 C          25.0385   -1.4206   27.6808 C.ar    1  UNL1        0.0000
   3227 N          25.0935   -2.0195   28.9190 N.pl3   1  UNL1        0.0000
   3228 N          29.4595  -15.1808   36.9232 N.3    49  UNL49       0.0000
   3229 N          30.8490  -10.7608   34.0464 N.3     1  UNL1        0.0000
   3230 N          28.9520  -19.4974   35.6933 N.pl3   1  UNL1        0.0000
   3231 O          30.1063  -10.4726   31.4793 O.2     1  UNL1        0.0000
   3232 O          19.6826  -13.7071   34.3694 O.3     1  UNL1        0.0000
   3233 O          26.9328  -17.8401   36.0912 O.3     1  UNL1        0.0000
   3234 O          23.4800   -5.3915   29.7815 O.3     1  UNL1        0.0000
   3235 O          24.3164   -6.7784   31.3676 O.3     1  UNL1        0.0000
   3236 O          25.3809  -17.5961   34.4645 O.3     1  UNL1        0.0000
   3237 O          31.6945  -10.7969   29.9017 O.2     1  UNL1        0.0000
   3238 O          18.8716  -12.3200   35.9674 O.3     1  UNL1        0.0000
   3239 O          29.0220  -11.0518   28.9027 O.3     1  UNL1        0.0000
   3240 O          21.3758  -13.1932   36.4678 O.3     1  UNL1        0.0000
   3241 O          29.9608   -8.7645   29.3527 O.3     1  UNL1        0.0000
   3242 O          19.6236  -14.9179   36.9605 O.3     1  UNL1        0.0000
   3243 O          24.2301  -18.1258   37.0552 O.3     1  UNL1        0.0000
   3244 O          25.9986   -6.2304   29.2833 O.3     1  UNL1        0.0000
   3245 O          25.1841  -15.8643   36.5910 O.3     1  UNL1        0.0000
   3246 O          24.2923   -7.9875   28.7658 O.3     1  UNL1        0.0000
   3247 O          26.6014  -18.9800   38.3572 O.3     1  UNL1        0.0000
   3248 O          24.8488   -4.3068   27.5092 O.3     1  UNL1        0.0000
   3249 O          27.4035  -16.1919   38.3521 O.3     1  UNL1        0.0000
   3250 O          22.6129   -6.1425   27.4492 O.3     1  UNL1        0.0000
   3251 O          32.1417   -9.1173   27.4954 O.2     1  UNL1        0.0000
   3252 O          17.9874  -13.0777   38.2832 O.3     1  UNL1        0.0000
   3253 O          31.3461  -11.8716   27.5248 O.2     1  UNL1        0.0000
   3254 O          20.2556  -11.2954   38.3645 O.3     1  UNL1        0.0000
   3255 O          27.2138   -8.6603   29.4038 O.3     1  UNL1        0.0000
   3256 O          22.5119  -15.6641   36.3848 O.3     1  UNL1        0.0000
   3257 O          29.6679   -9.8855   26.4710 O.3     1  UNL1        0.0000
   3258 O          25.1003   -6.7834   26.3042 O.3     1  UNL1        0.0000
   3259 H          26.2989  -13.9461   34.6914 H       1  UNL1        0.0000
   3260 H          22.3990  -19.6657   33.2100 H       1  UNL1        0.0000
   3261 H          27.1315   -4.9184   31.9092 H      49  UNL49       0.0000
   3262 H          27.4223  -12.1837   33.2907 H       1  UNL1        0.0000
   3263 H          22.4831  -12.0941   33.9425 H       1  UNL1        0.0000
   3264 H          18.9388  -17.1248   32.9841 H       1  UNL1        0.0000
   3265 H          23.8391  -13.8924   34.9814 H       1  UNL1        0.0000
   3266 H          23.6121  -10.3255   32.5658 H       1  UNL1        0.0000
   3267 H          28.2245   -7.1057   31.5053 H      49  UNL49       0.0000
   3268 H          14.6036   -6.9046   32.0462 H       1  UNL1        0.0000
   3269 C          25.5817  -11.1492   32.8600 C.ar    1  UNL1        0.0000
   3270 C          24.3296  -13.1199   34.3903 C.ar    1  UNL1        0.0000
   3271 C          28.7878   -6.3009   31.9783 C.2    49  UNL49       0.0000
   3272 C          20.7417  -18.2901   33.1585 C.2     1  UNL1        0.0000
   3273 C          24.1869  -11.1163   33.0433 C.ar    1  UNL1        0.0000
   3274 C          25.7196  -13.1509   34.2241 C.ar    1  UNL1        0.0000
   3275 C          28.1686   -5.0661   32.2064 C.2    49  UNL49       0.0000
   3276 C          21.3627  -19.5272   32.9091 C.3     1  UNL1        0.0000
   3277 C          30.1261   -6.5035   32.3349 C.3    49  UNL49       0.0000
   3278 C          19.4020  -18.0880   32.7807 C.3     1  UNL1        0.0000
   3279 C          26.3465  -12.1694   33.4531 C.ar    1  UNL1        0.0000
   3280 C          23.5633  -12.1050   33.8044 C.ar    1  UNL1        0.0000
   3281 O          27.4704  -10.2793   31.6916 O.3     1  UNL1        0.0000
   3282 O          20.8433  -16.1536   34.2086 O.2     1  UNL1        0.0000
   3283 O          22.6802  -17.4596   34.2662 O.2     1  UNL1        0.0000
   3284 O          25.5113   -9.1739   31.5435 O.3     1  UNL1        0.0000
   3285 N          28.6754   -4.8115   51.4554 N.pl3  49  UNL49       0.0000
   3286 N          29.1324   -5.6004   53.4404 N.pl3  49  UNL49       0.0000
   3287 C          29.3192   -6.0258   51.2727 C.2    49  UNL49       0.0000
   3288 C          29.6069   -6.5184   52.5191 C.2    49  UNL49       0.0000
   3289 C          30.4317   -4.6460   55.3281 C.3    49  UNL49       0.0000
   3290 C          28.2039   -3.9176   50.3906 C.3    49  UNL49       0.0000
   3291 C          28.5640   -4.5773   52.7748 C.3    49  UNL49       0.0000
   3292 C          29.3505   -5.6380   54.9045 C.3    49  UNL49       0.0000
   3293 H          29.5388   -6.4319   50.2934 H      49  UNL49       0.0000
   3294 H          30.0849   -7.4430   52.8210 H      49  UNL49       0.0000
   3295 H          31.3868   -4.8684   54.8353 H      49  UNL49       0.0000
   3296 H          29.0520   -3.6404   49.7554 H      49  UNL49       0.0000
   3297 H          30.1486   -3.6127   55.0910 H      49  UNL49       0.0000
   3298 H          27.4445   -4.4485   49.8041 H      49  UNL49       0.0000
   3299 H          30.5792   -4.7158   56.4142 H      49  UNL49       0.0000
   3300 H          29.6465   -6.6672   55.1487 H      49  UNL49       0.0000
   3301 H          27.7657   -3.0260   50.8496 H      49  UNL49       0.0000
   3302 H          28.0859   -3.7155   53.2230 H      49  UNL49       0.0000
   3303 H          28.3822   -5.4422   55.3811 H      49  UNL49       0.0000
   3304 N          34.2993    2.5044   53.2941 N.3    49  UNL49       0.0000
   3305 C          31.8952    2.8690   51.9677 C.3    49  UNL49       0.0000
   3306 C          36.3919    1.0004   53.1526 C.3    49  UNL49       0.0000
   3307 O          32.3804    3.6301   54.4157 O.2    49  UNL49       0.0000
   3308 O          33.5378    4.8181   52.4921 O.2    49  UNL49       0.0000
   3309 O          36.5915    3.6319   52.8994 O.2    49  UNL49       0.0000
   3310 O          35.5400    2.3682   51.0092 O.2    49  UNL49       0.0000
   3311 F          31.1772    1.8752   52.5569 F      49  UNL49       0.0000
   3312 F          35.7786   -0.0921   52.6369 F      49  UNL49       0.0000
   3313 F          32.4945    2.3571   50.8652 F      49  UNL49       0.0000
   3314 F          31.0225    3.8411   51.5729 F      49  UNL49       0.0000
   3315 F          36.2991    0.9469   54.5013 F      49  UNL49       0.0000
   3316 F          37.7057    0.9444   52.8103 F      49  UNL49       0.0000
   3317 S          33.1340    3.5877   53.1774 S.O2   49  UNL49       0.0000
   3318 S          35.6619    2.5786   52.4462 S.O2   49  UNL49       0.0000
   3319 TI         22.6264   15.7277   11.3690 Ti      1  UNL1        0.0000
   3320 TI         33.4569   18.6090    2.0042 Ti      1  UNL1        0.0000
   3321 TI         26.7231   11.7915    9.5490 Ti      1  UNL1        0.0000
   3322 TI         28.2343   20.9537    3.7760 Ti      1  UNL1        0.0000
   3323 TI         27.2357   22.6320    1.8716 Ti      1  UNL1        0.0000
   3324 TI         28.6113   11.5372   11.5024 Ti      1  UNL1        0.0000
   3325 TI         23.5756   13.9918    9.4775 Ti      1  UNL1        0.0000
   3326 TI         31.4691   18.9115    3.8517 Ti      1  UNL1        0.0000
   3327 H          23.1283   19.6248   11.1496 H       1  UNL1        0.0000
   3328 H          34.2657   14.7029    2.3249 H       1  UNL1        0.0000
   3329 H          18.6665   14.9711   10.9866 H       1  UNL1        0.0000
   3330 H          36.8390   20.6133    2.2049 H       1  UNL1        0.0000
   3331 H          29.5869    7.5027   11.1165 H       1  UNL1        0.0000
   3332 H          23.1772   22.0421    2.1937 H       1  UNL1        0.0000
   3333 H          27.7302   20.9952   -0.0015 H       1  UNL1        0.0000
   3334 H          31.5814   18.3663    0.3043 H       1  UNL1        0.0000
   3335 H          29.1212   10.8701    5.9913 H       1  UNL1        0.0000
   3336 H          26.5108   22.7907    7.3950 H       1  UNL1        0.0000
   3337 H          19.5030   17.3805    9.1216 H       1  UNL1        0.0000
   3338 H          36.2116   16.5246    4.3102 H       1  UNL1        0.0000
   3339 H          21.8041   15.9330    5.7878 H       1  UNL1        0.0000
   3340 H          24.1356   24.4598    4.2249 H       1  UNL1        0.0000
   3341 H          27.6280   25.7348    2.7271 H       1  UNL1        0.0000
   3342 H          34.1078   12.6841    3.5274 H       1  UNL1        0.0000
   3343 H          30.3269   20.6338    2.4374 H       1  UNL1        0.0000
   3344 H          25.6424   13.6399   10.8427 H       1  UNL1        0.0000
   3345 H          32.8460   13.4721    9.8921 H       1  UNL1        0.0000
   3346 H          31.3649   13.0030   10.6394 H       1  UNL1        0.0000
   3347 H          33.4202   17.9057    8.7932 H       1  UNL1        0.0000
   3348 H          32.8504   18.2643    7.1746 H       1  UNL1        0.0000
   3349 H          32.3572    8.5172    9.7020 H       1  UNL1        0.0000
   3350 H          31.0781    9.6178   10.1594 H       1  UNL1        0.0000
   3351 C          34.0349   17.8677    4.8677 C.2     1  UNL1        0.0000
   3352 C          21.6659   15.9891    8.5220 C.3     1  UNL1        0.0000
   3353 C          29.3036   10.7808    8.6243 C.3     1  UNL1        0.0000
   3354 C          26.2982   22.9242    4.7354 C.3     1  UNL1        0.0000
   3355 C          34.9309   17.2634    5.8629 C.2     1  UNL1        0.0000
   3356 C          20.7340   16.6141    7.5449 C.ar    1  UNL1        0.0000
   3357 C          30.2438   10.1665    7.6771 C.ar    1  UNL1        0.0000
   3358 C          25.4084   23.5710    5.7352 C.ar    1  UNL1        0.0000
   3359 C          34.6822   17.3383    7.2693 C.3     1  UNL1        0.0000
   3360 C          20.9504   16.4942    6.1569 C.ar    1  UNL1        0.0000
   3361 C          31.3732    9.4062    8.1302 C.ar    1  UNL1        0.0000
   3362 C          24.3136   24.3439    5.2902 C.ar    1  UNL1        0.0000
   3363 C          25.6628   23.4002    7.0900 C.ar    1  UNL1        0.0000
   3364 C          29.9961   10.2986    6.2932 C.ar    1  UNL1        0.0000
   3365 C          36.0646   16.5644    5.3872 C.3     1  UNL1        0.0000
   3366 C          19.6338   17.3066    8.0436 C.ar    1  UNL1        0.0000
   3367 C          34.2467   14.7820    0.1808 C.2     1  UNL1        0.0000
   3368 C          27.7770   26.5736    0.2058 C.2     1  UNL1        0.0000
   3369 C          36.7311   20.5451    0.0548 C.2     1  UNL1        0.0000
   3370 C          23.3728   22.0875    0.0354 C.2     1  UNL1        0.0000
   3371 C          28.9810   18.6105    5.7406 C.3     1  UNL1        0.0000
   3372 C          24.2249   11.5161    7.6587 C.3     1  UNL1        0.0000
   3373 C          34.1108   16.2368    0.1576 C.2     1  UNL1        0.0000
   3374 C          27.6842   25.1400    0.1683 C.2     1  UNL1        0.0000
   3375 C          35.4333   19.9283    0.1017 C.2     1  UNL1        0.0000
   3376 C          24.7751   22.5019    0.0599 C.2     1  UNL1        0.0000
   3377 C          34.2860   14.1129    1.4105 C.2     1  UNL1        0.0000
   3378 C          23.1392   20.2132   12.0635 C.ar    1  UNL1        0.0000
   3379 C          37.3864   20.8199    1.2888 C.3     1  UNL1        0.0000
   3380 C          18.1050   14.7917   11.9019 C.ar    1  UNL1        0.0000
   3381 C          32.7908   13.7474   11.9164 C.3     1  UNL1        0.0000
   3382 C          22.6756   21.8571    1.2479 C.2     1  UNL1        0.0000
   3383 C          29.6285    6.9755   12.0655 C.ar    1  UNL1        0.0000
   3384 C          27.7907   27.3248    1.4351 C.2     1  UNL1        0.0000
   3385 N          27.8458   26.7259    2.6732 N.pl3   1  UNL1        0.0000
   3386 N          32.2117   13.5645   10.6774 N.3     1  UNL1        0.0000
   3387 N          33.6013   17.9846    7.8006 N.3     1  UNL1        0.0000
   3388 N          31.7043    9.2479    9.4476 N.pl3   1  UNL1        0.0000
   3389 O          32.8586   18.2728    5.2335 O.2     1  UNL1        0.0000
   3390 O          22.4349   15.0383    8.1237 O.3     1  UNL1        0.0000
   3391 O          29.6851   10.9053    9.8454 O.3     1  UNL1        0.0000
   3392 O          26.2323   23.3539    3.5358 O.3     1  UNL1        0.0000
   3393 O          27.0686   21.9670    5.1218 O.3     1  UNL1        0.0000
   3394 O          28.1332   11.1493    8.2188 O.3     1  UNL1        0.0000
   3395 O          34.4468   17.9485    3.6560 O.2     1  UNL1        0.0000
   3396 O          21.6238   16.4254    9.7217 O.3     1  UNL1        0.0000
   3397 O          31.7743   17.6936    2.6570 O.3     1  UNL1        0.0000
   3398 O          24.1281   15.5522   10.2221 O.3     1  UNL1        0.0000
   3399 O          32.7131   19.9809    3.1070 O.3     1  UNL1        0.0000
   3400 O          22.3759   13.8275   10.7147 O.3     1  UNL1        0.0000
   3401 O          26.9824   10.6196   10.8095 O.3     1  UNL1        0.0000
   3402 O          28.7508   22.5150    3.0375 O.3     1  UNL1        0.0000
   3403 O          27.9363   12.8811   10.3453 O.3     1  UNL1        0.0000
   3404 O          27.0446   20.7579    2.5201 O.3     1  UNL1        0.0000
   3405 O          29.3536    9.7653   12.1115 O.3     1  UNL1        0.0000
   3406 O          27.6011   24.4386    1.2635 O.2     1  UNL1        0.0000
   3407 O          30.1558   12.5535   12.1064 O.2     1  UNL1        0.0000
   3408 O          25.3652   22.6029    1.2034 O.2     1  UNL1        0.0000
   3409 O          34.8940   19.6281    1.2496 O.2     1  UNL1        0.0000
   3410 O          20.7396   15.6677   12.0375 O.3     1  UNL1        0.0000
   3411 O          34.0984   16.8738    1.2790 O.2     1  UNL1        0.0000
   3412 O          23.0078   17.4500   12.1187 O.3     1  UNL1        0.0000
   3413 O          29.9661   20.0851    3.1580 O.3     1  UNL1        0.0000
   3414 O          25.2641   13.0812   10.1391 O.3     1  UNL1        0.0000
   3415 O          32.4202   18.8599    0.2252 O.3     1  UNL1        0.0000
   3416 O          27.8525   21.9620    0.0585 O.3     1  UNL1        0.0000
   3417 H          29.0512   14.7993    8.4456 H       1  UNL1        0.0000
   3418 H          25.1513    9.0797    6.9643 H       1  UNL1        0.0000
   3419 H          29.8838   23.8270    5.6635 H      49  UNL49       0.0000
   3420 H          30.1746   16.5617    7.0450 H       1  UNL1        0.0000
   3421 H          25.2354   16.6513    7.6968 H       1  UNL1        0.0000
   3422 H          21.6910   11.6206    6.7383 H       1  UNL1        0.0000
   3423 H          26.5913   14.8530    8.7357 H       1  UNL1        0.0000
   3424 H          26.3644   18.4198    6.3201 H       1  UNL1        0.0000
   3425 H          30.9768   21.6397    5.2595 H      49  UNL49       0.0000
   3426 H          17.3558   21.8408    5.8005 H       1  UNL1        0.0000
   3427 C          28.3340   17.5962    6.6143 C.ar    1  UNL1        0.0000
   3428 C          27.0818   15.6255    8.1446 C.ar    1  UNL1        0.0000
   3429 C          31.5401   22.4445    5.7325 C.2    49  UNL49       0.0000
   3430 C          23.4940   10.4553    6.9128 C.ar    1  UNL1        0.0000
   3431 C          26.9392   17.6291    6.7975 C.ar    1  UNL1        0.0000
   3432 C          28.4719   15.5945    7.9784 C.ar    1  UNL1        0.0000
   3433 C          30.9209   23.6793    5.9607 C.2    49  UNL49       0.0000
   3434 C          24.1150    9.2182    6.6634 C.ar    1  UNL1        0.0000
   3435 C          32.8784   22.2419    6.0892 C.3    49  UNL49       0.0000
   3436 C          22.1542   10.6574    6.5350 C.ar    1  UNL1        0.0000
   3437 C          29.0988   16.5760    7.2074 C.ar    1  UNL1        0.0000
   3438 C          26.3155   16.6403    7.5587 C.ar    1  UNL1        0.0000
   3439 O          30.2226   18.4661    5.4458 O.3     1  UNL1        0.0000
   3440 O          23.5955   12.5918    7.9629 O.3     1  UNL1        0.0000
   3441 O          25.4324   11.2858    8.0205 O.3     1  UNL1        0.0000
   3442 O          28.2636   19.5715    5.2977 O.3     1  UNL1        0.0000
   3443 N          31.4276   23.9339   25.2096 N.pl3  49  UNL49       0.0000
   3444 N          31.8847   23.1450   27.1946 N.pl3  49  UNL49       0.0000
   3445 C          32.0715   22.7196   25.0270 C.2    49  UNL49       0.0000
   3446 C          32.3592   22.2270   26.2733 C.2    49  UNL49       0.0000
   3447 C          33.1840   24.0993   29.0823 C.3    49  UNL49       0.0000
   3448 C          30.9561   24.8277   24.1448 C.3    49  UNL49       0.0000
   3449 C          31.3163   24.1681   26.5290 C.3    49  UNL49       0.0000
   3450 C          32.1028   23.1073   28.6588 C.3    49  UNL49       0.0000
   3451 H          32.2910   22.3135   24.0477 H      49  UNL49       0.0000
   3452 H          32.8371   21.3024   26.5752 H      49  UNL49       0.0000
   3453 H          34.1390   23.8770   28.5896 H      49  UNL49       0.0000
   3454 H          31.8042   25.1049   23.5096 H      49  UNL49       0.0000
   3455 H          32.9009   25.1327   28.8452 H      49  UNL49       0.0000
   3456 H          30.1968   24.2968   23.5584 H      49  UNL49       0.0000
   3457 H          33.3315   24.0296   30.1685 H      49  UNL49       0.0000
   3458 H          32.3987   22.0781   28.9029 H      49  UNL49       0.0000
   3459 H          30.5180   25.7194   24.6039 H      49  UNL49       0.0000
   3460 H          30.8382   25.0299   26.9773 H      49  UNL49       0.0000
   3461 H          31.1344   23.3032   29.1354 H      49  UNL49       0.0000
   3462 N          37.0516   31.2498   27.0483 N.3    49  UNL49       0.0000
   3463 C          34.6475   31.6143   25.7219 C.3    49  UNL49       0.0000
   3464 C          39.1442   29.7457   26.9069 C.3    49  UNL49       0.0000
   3465 O          35.1327   32.3755   28.1700 O.2    49  UNL49       0.0000
   3466 O          36.2901   33.5635   26.2464 O.2    49  UNL49       0.0000
   3467 O          39.3438   32.3773   26.6537 O.2    49  UNL49       0.0000
   3468 O          38.2923   31.1136   24.7634 O.2    49  UNL49       0.0000
   3469 F          33.9295   30.6206   26.3112 F      49  UNL49       0.0000
   3470 F          38.5309   28.6533   26.3912 F      49  UNL49       0.0000
   3471 F          35.2467   31.1025   24.6195 F      49  UNL49       0.0000
   3472 F          33.7748   32.5864   25.3272 F      49  UNL49       0.0000
   3473 F          39.0514   29.6923   28.2556 F      49  UNL49       0.0000
   3474 F          40.4580   29.6898   26.5645 F      49  UNL49       0.0000
   3475 S          35.8863   32.3331   26.9316 S.O2   49  UNL49       0.0000
   3476 S          38.4142   31.3240   26.2004 S.O2   49  UNL49       0.0000
   3477 TI         17.9918    8.6613   24.4636 Ti      1  UNL1        0.0000
   3478 TI         28.8222   11.5425   15.0988 Ti      1  UNL1        0.0000
   3479 TI         22.0885    4.7251   22.6436 Ti      1  UNL1        0.0000
   3480 TI         23.5996   13.8872   16.8706 Ti      1  UNL1        0.0000
   3481 TI         22.6011   15.5656   14.9662 Ti      1  UNL1        0.0000
   3482 TI         23.9767    4.4708   24.5970 Ti      1  UNL1        0.0000
   3483 TI         18.9410    6.9254   22.5721 Ti      1  UNL1        0.0000
   3484 TI         26.8344   11.8451   16.9463 Ti      1  UNL1        0.0000
   3485 H          18.4936   12.5584   24.2442 H       1  UNL1        0.0000
   3486 H          29.6310    7.6365   15.4195 H       1  UNL1        0.0000
   3487 H          14.0319    7.9047   24.0812 H       1  UNL1        0.0000
   3488 H          32.2044   13.5468   15.2995 H       1  UNL1        0.0000
   3489 H          24.9523    0.4362   24.2111 H       1  UNL1        0.0000
   3490 H          18.5425   14.9757   15.2883 H       1  UNL1        0.0000
   3491 H          23.0955   13.9287   13.0931 H       1  UNL1        0.0000
   3492 H          26.9467   11.2998   13.3989 H       1  UNL1        0.0000
   3493 H          24.4866    3.8037   19.0859 H       1  UNL1        0.0000
   3494 H          21.8762   15.7243   20.4896 H       1  UNL1        0.0000
   3495 H          14.8683   10.3140   22.2162 H       1  UNL1        0.0000
   3496 H          31.5770    9.4582   17.4048 H       1  UNL1        0.0000
   3497 H          17.1695    8.8666   18.8824 H       1  UNL1        0.0000
   3498 H          19.5010   17.3934   17.3195 H       1  UNL1        0.0000
   3499 H          22.9933   18.6684   15.8217 H       1  UNL1        0.0000
   3500 H          29.4732    5.6176   16.6220 H       1  UNL1        0.0000
   3501 H          25.6923   13.5674   15.5320 H       1  UNL1        0.0000
   3502 H          21.0078    6.5735   23.9373 H       1  UNL1        0.0000
   3503 H          28.2114    6.4056   22.9867 H       1  UNL1        0.0000
   3504 H          26.7303    5.9366   23.7340 H       1  UNL1        0.0000
   3505 H          28.7855   10.8393   21.8878 H       1  UNL1        0.0000
   3506 H          28.2158   11.1978   20.2692 H       1  UNL1        0.0000
   3507 H          27.7226    1.4508   22.7966 H       1  UNL1        0.0000
   3508 H          26.4434    2.5514   23.2540 H       1  UNL1        0.0000
   3509 C          29.4003   10.8013   17.9623 C.2     1  UNL1        0.0000
   3510 C          17.0312    8.9227   21.6166 C.3     1  UNL1        0.0000
   3511 C          24.6690    3.7144   21.7189 C.3     1  UNL1        0.0000
   3512 C          21.6635   15.8578   17.8300 C.3     1  UNL1        0.0000
   3513 C          30.2963   10.1970   18.9575 C.2     1  UNL1        0.0000
   3514 C          16.0993    9.5477   20.6395 C.ar    1  UNL1        0.0000
   3515 C          25.6092    3.1001   20.7717 C.ar    1  UNL1        0.0000
   3516 C          20.7737   16.5046   18.8298 C.ar    1  UNL1        0.0000
   3517 C          30.0475   10.2719   20.3640 C.3     1  UNL1        0.0000
   3518 C          16.3157    9.4277   19.2515 C.ar    1  UNL1        0.0000
   3519 C          26.7386    2.3398   21.2248 C.ar    1  UNL1        0.0000
   3520 C          19.6790   17.2775   18.3848 C.ar    1  UNL1        0.0000
   3521 C          21.0282   16.3338   20.1846 C.ar    1  UNL1        0.0000
   3522 C          25.3614    3.2322   19.3878 C.ar    1  UNL1        0.0000
   3523 C          31.4300    9.4980   18.4818 C.3     1  UNL1        0.0000
   3524 C          14.9991   10.2401   21.1382 C.ar    1  UNL1        0.0000
   3525 C          29.6120    7.7155   13.2754 C.ar    1  UNL1        0.0000
   3526 C          23.1423   19.5071   13.3004 C.ar    1  UNL1        0.0000
   3527 C          32.0965   13.4787   13.1494 C.2     1  UNL1        0.0000
   3528 C          18.7381   15.0211   13.1300 C.ar    1  UNL1        0.0000
   3529 C          24.3464   11.5441   18.8352 C.3     1  UNL1        0.0000
   3530 C          19.5903    4.4497   20.7533 C.3     1  UNL1        0.0000
   3531 C          29.4762    9.1704   13.2522 C.3     1  UNL1        0.0000
   3532 C          23.0496   18.0736   13.2629 C.3     1  UNL1        0.0000
   3533 C          30.7986   12.8618   13.1963 C.2     1  UNL1        0.0000
   3534 C          20.1405   15.4354   13.1545 C.3     1  UNL1        0.0000
   3535 C          29.6514    7.0464   14.5051 C.ar    1  UNL1        0.0000
   3536 C          18.5046   13.1468   25.1581 C.ar    1  UNL1        0.0000
   3537 C          32.7518   13.7535   14.3834 C.3     1  UNL1        0.0000
   3538 C          13.4704    7.7253   24.9965 C.ar    1  UNL1        0.0000
   3539 C          28.1561    6.6809   25.0110 C.3     1  UNL1        0.0000
   3540 C          18.0410   14.7907   14.3425 C.ar    1  UNL1        0.0000
   3541 C          24.9939   -0.0909   25.1601 C.ar    1  UNL1        0.0000
   3542 C          23.1561   20.2583   14.5297 C.ar    1  UNL1        0.0000
   3543 N          23.2111   19.6595   15.7679 N.pl3   1  UNL1        0.0000
   3544 N          27.5771    6.4981   23.7721 N.3     1  UNL1        0.0000
   3545 N          28.9666   10.9181   20.8952 N.3     1  UNL1        0.0000
   3546 N          27.0696    2.1815   22.5422 N.pl3   1  UNL1        0.0000
   3547 O          28.2239   11.2064   18.3281 O.2     1  UNL1        0.0000
   3548 O          17.8002    7.9718   21.2183 O.3     1  UNL1        0.0000
   3549 O          25.0504    3.8389   22.9400 O.3     1  UNL1        0.0000
   3550 O          21.5976   16.2874   16.6304 O.3     1  UNL1        0.0000
   3551 O          22.4340   14.9005   18.2164 O.3     1  UNL1        0.0000
   3552 O          23.4985    4.0828   21.3134 O.3     1  UNL1        0.0000
   3553 O          29.8121   10.8820   16.7506 O.2     1  UNL1        0.0000
   3554 O          16.9892    9.3589   22.8163 O.3     1  UNL1        0.0000
   3555 O          27.1396   10.6272   15.7516 O.3     1  UNL1        0.0000
   3556 O          19.4934    8.4858   23.3167 O.3     1  UNL1        0.0000
   3557 O          28.0784   12.9145   16.2016 O.3     1  UNL1        0.0000
   3558 O          17.7412    6.7611   23.8093 O.3     1  UNL1        0.0000
   3559 O          22.3478    3.5531   23.9041 O.3     1  UNL1        0.0000
   3560 O          24.1162   15.4486   16.1321 O.3     1  UNL1        0.0000
   3561 O          23.3017    5.8146   23.4399 O.3     1  UNL1        0.0000
   3562 O          22.4100   13.6914   15.6147 O.3     1  UNL1        0.0000
   3563 O          24.7190    2.6989   25.2061 O.3     1  UNL1        0.0000
   3564 O          22.9665   17.3722   14.3581 O.3     1  UNL1        0.0000
   3565 O          25.5211    5.4871   25.2010 O.2     1  UNL1        0.0000
   3566 O          20.7305   15.5364   14.2980 O.3     1  UNL1        0.0000
   3567 O          30.2593   12.5616   14.3443 O.2     1  UNL1        0.0000
   3568 O          16.1050    8.6013   25.1321 O.3     1  UNL1        0.0000
   3569 O          29.4637    9.8073   14.3737 O.3     1  UNL1        0.0000
   3570 O          18.3732   10.3836   25.2133 O.3     1  UNL1        0.0000
   3571 O          25.3314   13.0186   16.2527 O.3     1  UNL1        0.0000
   3572 O          20.6295    6.0148   23.2337 O.3     1  UNL1        0.0000
   3573 O          27.7855   11.7935   13.3199 O.3     1  UNL1        0.0000
   3574 O          23.2179   14.8955   13.1531 O.3     1  UNL1        0.0000
   3575 H          24.4166    7.7329   21.5402 H       1  UNL1        0.0000
   3576 H          20.5166    2.0132   20.0589 H       1  UNL1        0.0000
   3577 H          25.2491   16.7605   18.7581 H      49  UNL49       0.0000
   3578 H          25.5399    9.4953   20.1396 H       1  UNL1        0.0000
   3579 H          20.6007    9.5849   20.7914 H       1  UNL1        0.0000
   3580 H          17.0564    4.5541   19.8329 H       1  UNL1        0.0000
   3581 H          21.9567    7.7865   21.8303 H       1  UNL1        0.0000
   3582 H          21.7297   11.3534   19.4147 H       1  UNL1        0.0000
   3583 H          26.3421   14.5733   18.3541 H      49  UNL49       0.0000
   3584 H          12.7212   14.7743   18.8951 H       1  UNL1        0.0000
   3585 C          23.6994   10.5297   19.7089 C.ar    1  UNL1        0.0000
   3586 C          22.4472    8.5591   21.2392 C.ar    1  UNL1        0.0000
   3587 C          26.9055   15.3780   18.8271 C.2    49  UNL49       0.0000
   3588 C          18.8593    3.3889   20.0074 C.ar    1  UNL1        0.0000
   3589 C          22.3046   10.5627   19.8921 C.ar    1  UNL1        0.0000
   3590 C          23.8372    8.5281   21.0730 C.ar    1  UNL1        0.0000
   3591 C          26.2862   16.6128   19.0553 C.2    49  UNL49       0.0000
   3592 C          19.4804    2.1518   19.7580 C.ar    1  UNL1        0.0000
   3593 C          28.2437   15.1755   19.1838 C.3    49  UNL49       0.0000
   3594 C          17.5196    3.5910   19.6296 C.ar    1  UNL1        0.0000
   3595 C          24.4641    9.5096   20.3020 C.ar    1  UNL1        0.0000
   3596 C          21.6809    9.5739   20.6533 C.ar    1  UNL1        0.0000
   3597 O          25.5880   11.3996   18.5405 O.3     1  UNL1        0.0000
   3598 O          18.9609    5.5253   21.0575 O.3     1  UNL1        0.0000
   3599 O          20.7978    4.2193   21.1151 O.3     1  UNL1        0.0000
   3600 O          23.6290   12.5051   18.3923 O.3     1  UNL1        0.0000
   3601 N          26.7930   16.8675   38.3042 N.pl3  49  UNL49       0.0000
   3602 N          27.2500   16.0785   40.2892 N.pl3  49  UNL49       0.0000
   3603 C          27.4368   15.6531   38.1216 C.2    49  UNL49       0.0000
   3604 C          27.7245   15.1606   39.3679 C.2    49  UNL49       0.0000
   3605 C          28.5494   17.0329   42.1770 C.3    49  UNL49       0.0000
   3606 C          26.3215   17.7613   37.2394 C.3    49  UNL49       0.0000
   3607 C          26.6816   17.1017   39.6236 C.3    49  UNL49       0.0000
   3608 C          27.4681   16.0409   41.7534 C.3    49  UNL49       0.0000
   3609 H          27.6564   15.2471   37.1423 H      49  UNL49       0.0000
   3610 H          28.2025   14.2359   39.6698 H      49  UNL49       0.0000
   3611 H          29.5044   16.8105   41.6842 H      49  UNL49       0.0000
   3612 H          27.1696   18.0385   36.6042 H      49  UNL49       0.0000
   3613 H          28.2662   18.0663   41.9398 H      49  UNL49       0.0000
   3614 H          25.5622   17.2304   36.6530 H      49  UNL49       0.0000
   3615 H          28.6968   16.9632   43.2631 H      49  UNL49       0.0000
   3616 H          27.7641   15.0117   41.9975 H      49  UNL49       0.0000
   3617 H          25.8834   18.6529   37.6985 H      49  UNL49       0.0000
   3618 H          26.2035   17.9635   40.0719 H      49  UNL49       0.0000
   3619 H          26.4998   16.2367   42.2300 H      49  UNL49       0.0000
   3620 N          32.4170   24.1833   40.1430 N.3    49  UNL49       0.0000
   3621 C          30.0128   24.5479   38.8165 C.3    49  UNL49       0.0000
   3622 C          34.5095   22.6793   40.0015 C.3    49  UNL49       0.0000
   3623 O          30.4980   25.3091   41.2646 O.2    49  UNL49       0.0000
   3624 O          31.6555   26.4970   39.3410 O.2    49  UNL49       0.0000
   3625 O          34.7091   25.3108   39.7483 O.2    49  UNL49       0.0000
   3626 O          33.6576   24.0472   37.8580 O.2    49  UNL49       0.0000
   3627 F          29.2948   23.5542   39.4058 F      49  UNL49       0.0000
   3628 F          33.8962   21.5868   39.4858 F      49  UNL49       0.0000
   3629 F          30.6121   24.0361   37.7141 F      49  UNL49       0.0000
   3630 F          29.1401   25.5200   38.4218 F      49  UNL49       0.0000
   3631 F          34.4168   22.6259   41.3502 F      49  UNL49       0.0000
   3632 F          35.8233   22.6234   39.6591 F      49  UNL49       0.0000
   3633 S          31.2516   25.2666   40.0262 S.O2   49  UNL49       0.0000
   3634 S          33.7796   24.2575   39.2950 S.O2   49  UNL49       0.0000
   3635 TI         13.3571    1.5949   37.5582 Ti      1  UNL1        0.0000
   3636 TI         24.1876    4.4761   28.1934 Ti      1  UNL1        0.0000
   3637 TI         17.4538   -2.3413   35.7383 Ti      1  UNL1        0.0000
   3638 TI         18.9650    6.8208   29.9652 Ti      1  UNL1        0.0000
   3639 TI         17.9664    8.4991   28.0608 Ti      1  UNL1        0.0000
   3640 TI         19.3420   -2.5957   37.6916 Ti      1  UNL1        0.0000
   3641 TI         14.3063   -0.1410   35.6668 Ti      1  UNL1        0.0000
   3642 TI         22.1998    4.7786   30.0409 Ti      1  UNL1        0.0000
   3643 H          13.8590    5.4920   37.3388 H      49  UNL49       0.0000
   3644 H          24.9964    0.5700   28.5141 H       1  UNL1        0.0000
   3645 H           9.3972    0.8382   37.1758 H      49  UNL49       0.0000
   3646 H          27.5697    6.4804   28.3941 H       1  UNL1        0.0000
   3647 H          20.3176   -6.6302   37.3057 H      49  UNL49       0.0000
   3648 H          13.9079    7.9092   28.3829 H       1  UNL1        0.0000
   3649 H          18.4609    6.8623   26.1878 H       1  UNL1        0.0000
   3650 H          22.3121    4.2334   26.4935 H       1  UNL1        0.0000
   3651 H          19.8519   -3.2628   32.1805 H       1  UNL1        0.0000
   3652 H          17.2416    8.6578   33.5842 H       1  UNL1        0.0000
   3653 H          10.2337    3.2476   35.3108 H       1  UNL1        0.0000
   3654 H          26.9423    2.3918   30.4994 H       1  UNL1        0.0000
   3655 H          12.5348    1.8002   31.9770 H       1  UNL1        0.0000
   3656 H          14.8663   10.3270   30.4141 H       1  UNL1        0.0000
   3657 H          18.3587   11.6019   28.9163 H       1  UNL1        0.0000
   3658 H          24.8385   -1.4488   29.7166 H       1  UNL1        0.0000
   3659 H          21.0576    6.5009   28.6266 H       1  UNL1        0.0000
   3660 H          16.3731   -0.4929   37.0319 H       1  UNL1        0.0000
   3661 H          23.5767   -0.6608   36.0813 H      49  UNL49       0.0000
   3662 H          22.0956   -1.1299   36.8286 H      49  UNL49       0.0000
   3663 H          24.1509    3.7728   34.9824 H       1  UNL1        0.0000
   3664 H          23.5811    4.1314   33.3638 H       1  UNL1        0.0000
   3665 H          23.0879   -5.6156   35.8913 H       1  UNL1        0.0000
   3666 H          21.8088   -4.5151   36.3486 H       1  UNL1        0.0000
   3667 C          24.7656    3.7348   31.0570 C.2     1  UNL1        0.0000
   3668 C          12.3966    1.8563   34.7112 C.3     1  UNL1        0.0000
   3669 C          20.0343   -3.3520   34.8135 C.3     1  UNL1        0.0000
   3670 C          17.0289    8.7913   30.9246 C.3     1  UNL1        0.0000
   3671 C          25.6616    3.1305   32.0521 C.2     1  UNL1        0.0000
   3672 C          11.4647    2.4813   33.7342 C.ar    1  UNL1        0.0000
   3673 C          20.9745   -3.9664   33.8663 C.ar    1  UNL1        0.0000
   3674 C          16.1391    9.4381   31.9244 C.ar    1  UNL1        0.0000
   3675 C          25.4129    3.2054   33.4586 C.3     1  UNL1        0.0000
   3676 C          11.6811    2.3613   32.3461 C.ar    1  UNL1        0.0000
   3677 C          22.1040   -4.7267   34.3194 C.ar    1  UNL1        0.0000
   3678 C          15.0443   10.2111   31.4794 C.ar    1  UNL1        0.0000
   3679 C          16.3936    9.2674   33.2793 C.ar    1  UNL1        0.0000
   3680 C          20.7268   -3.8342   32.4824 C.ar    1  UNL1        0.0000
   3681 C          26.7953    2.4315   31.5764 C.3     1  UNL1        0.0000
   3682 C          10.3645    3.1737   34.2328 C.ar    1  UNL1        0.0000
   3683 C          24.9774    0.6491   26.3700 C.ar    1  UNL1        0.0000
   3684 C          18.5077   12.4407   26.3950 C.ar    1  UNL1        0.0000
   3685 C          27.4618    6.4122   26.2440 C.2     1  UNL1        0.0000
   3686 C          14.1035    7.9547   26.2246 C.ar    1  UNL1        0.0000
   3687 C          19.7117    4.4776   31.9298 C.3     1  UNL1        0.0000
   3688 C          14.9556   -2.6167   33.8480 C.3     1  UNL1        0.0000
   3689 C          24.8415    2.1040   26.3468 C.3     1  UNL1        0.0000
   3690 C          18.4149   11.0072   26.3575 C.3     1  UNL1        0.0000
   3691 C          26.1640    5.7954   26.2909 C.2     1  UNL1        0.0000
   3692 C          15.5058    8.3690   26.2491 C.3     1  UNL1        0.0000
   3693 C          25.0167   -0.0200   27.5997 C.ar    1  UNL1        0.0000
   3694 C          13.8699    6.0804   38.2527 C.2    49  UNL49       0.0000
   3695 C          28.1171    6.6870   27.4780 C.3     1  UNL1        0.0000
   3696 C           8.8357    0.6589   38.0911 C.2    49  UNL49       0.0000
   3697 C          23.5215   -0.3855   38.1056 C.3    49  UNL49       0.0000
   3698 C          13.4063    7.7242   27.4371 C.ar    1  UNL1        0.0000
   3699 C          20.3593   -7.1574   38.2548 C.2    49  UNL49       0.0000
   3700 C          18.5214   13.1919   27.6243 C.ar    1  UNL1        0.0000
   3701 N          18.5765   12.5930   28.8625 N.pl3   1  UNL1        0.0000
   3702 N          22.9425   -0.5683   36.8667 N.3    49  UNL49       0.0000
   3703 N          24.3320    3.8517   33.9899 N.3     1  UNL1        0.0000
   3704 N          22.4350   -4.8849   35.6368 N.pl3   1  UNL1        0.0000
   3705 O          23.5893    4.1399   31.4227 O.2     1  UNL1        0.0000
   3706 O          13.1656    0.9054   34.3129 O.3     1  UNL1        0.0000
   3707 O          20.4158   -3.2276   36.0346 O.3     1  UNL1        0.0000
   3708 O          16.9630    9.2210   29.7250 O.3     1  UNL1        0.0000
   3709 O          17.7993    7.8341   31.3110 O.3     1  UNL1        0.0000
   3710 O          18.8639   -2.9836   34.4080 O.3     1  UNL1        0.0000
   3711 O          25.1775    3.8156   29.8452 O.2     1  UNL1        0.0000
   3712 O          12.3546    2.2925   35.9109 O.3     1  UNL1        0.0000
   3713 O          22.5050    3.5607   28.8462 O.3     1  UNL1        0.0000
   3714 O          14.8588    1.4193   36.4113 O.3     1  UNL1        0.0000
   3715 O          23.4438    5.8480   29.2962 O.3     1  UNL1        0.0000
   3716 O          13.1066   -0.3053   36.9039 O.3     1  UNL1        0.0000
   3717 O          17.7131   -3.5133   36.9987 O.3     1  UNL1        0.0000
   3718 O          19.4815    8.3821   29.2267 O.3     1  UNL1        0.0000
   3719 O          18.6671   -1.2518   36.5345 O.3     1  UNL1        0.0000
   3720 O          17.7753    6.6250   28.7093 O.3     1  UNL1        0.0000
   3721 O          20.0843   -4.3675   38.3007 O.3     1  UNL1        0.0000
   3722 O          18.3318   10.3057   27.4527 O.3     1  UNL1        0.0000
   3723 O          20.8865   -1.5793   38.2956 O.3     1  UNL1        0.0000
   3724 O          16.0959    8.4700   27.3927 O.3     1  UNL1        0.0000
   3725 O          25.6247    5.4952   27.4389 O.2     1  UNL1        0.0000
   3726 O          11.4703    1.5348   38.2267 O.3     1  UNL1        0.0000
   3727 O          24.8291    2.7409   27.4683 O.3     1  UNL1        0.0000
   3728 O          13.7385    3.3172   38.3079 O.3     1  UNL1        0.0000
   3729 O          20.6968    5.9522   29.3473 O.3     1  UNL1        0.0000
   3730 O          15.9948   -1.0516   36.3283 O.3     1  UNL1        0.0000
   3731 O          23.1509    4.7271   26.4145 O.3     1  UNL1        0.0000
   3732 O          18.5832    7.8291   26.2477 O.3     1  UNL1        0.0000
   3733 H          19.7819    0.6665   34.6348 H       1  UNL1        0.0000
   3734 H          15.8820   -5.0532   33.1535 H       1  UNL1        0.0000
   3735 H          20.6145    9.6941   31.8527 H      49  UNL49       0.0000
   3736 H          20.9053    2.4288   33.2342 H       1  UNL1        0.0000
   3737 H          15.9661    2.5184   33.8860 H       1  UNL1        0.0000
   3738 H          12.4217   -2.5123   32.9275 H       1  UNL1        0.0000
   3739 H          17.3220    0.7201   34.9249 H       1  UNL1        0.0000
   3740 H          17.0951    4.2870   32.5093 H       1  UNL1        0.0000
   3741 H          21.7075    7.5068   31.4488 H      49  UNL49       0.0000
   3742 H           8.0865    7.7079   31.9897 H       1  UNL1        0.0000
   3743 C          19.0647    3.4633   32.8035 C.ar    1  UNL1        0.0000
   3744 C          17.8125    1.4926   34.3338 C.ar    1  UNL1        0.0000
   3745 C          22.2708    8.3116   31.9218 C.2    49  UNL49       0.0000
   3746 C          14.2247   -3.6776   33.1020 C.ar    1  UNL1        0.0000
   3747 C          17.6699    3.4963   32.9868 C.ar    1  UNL1        0.0000
   3748 C          19.2026    1.4616   34.1676 C.ar    1  UNL1        0.0000
   3749 C          21.6516    9.5464   32.1499 C.2    49  UNL49       0.0000
   3750 C          14.8457   -4.9147   32.8526 C.ar    1  UNL1        0.0000
   3751 C          23.6091    8.1090   32.2784 C.3    49  UNL49       0.0000
   3752 C          12.8850   -3.4755   32.7242 C.ar    1  UNL1        0.0000
   3753 C          19.8295    2.4431   33.3966 C.ar    1  UNL1        0.0000
   3754 C          17.0462    2.5075   33.7479 C.ar    1  UNL1        0.0000
   3755 O          20.9534    4.3332   31.6351 O.3     1  UNL1        0.0000
   3756 O          14.3263   -1.5411   34.1521 O.3     1  UNL1        0.0000
   3757 O          16.1631   -2.8471   34.2097 O.3     1  UNL1        0.0000
   3758 O          18.9943    5.4387   31.4870 O.3     1  UNL1        0.0000
   3759 N          22.1583    9.8010   51.3988 N.pl3  49  UNL49       0.0000
   3760 N          22.6154    9.0121   53.3838 N.pl3  49  UNL49       0.0000
   3761 C          22.8022    8.5867   51.2162 C.2    49  UNL49       0.0000
   3762 C          23.0899    8.0941   52.4626 C.2    49  UNL49       0.0000
   3763 C          23.9147    9.9665   55.2716 C.3    49  UNL49       0.0000
   3764 C          21.6868   10.6949   50.3340 C.3    49  UNL49       0.0000
   3765 C          22.0470   10.0352   52.7182 C.3    49  UNL49       0.0000
   3766 C          22.8335    8.9745   54.8480 C.3    49  UNL49       0.0000
   3767 H          23.0218    8.1806   50.2369 H      49  UNL49       0.0000
   3768 H          23.5679    7.1695   52.7645 H      49  UNL49       0.0000
   3769 H          24.8697    9.7441   54.7788 H      49  UNL49       0.0000
   3770 H          22.5349   10.9721   49.6989 H      49  UNL49       0.0000
   3771 H          23.6316   10.9999   55.0345 H      49  UNL49       0.0000
   3772 H          20.9275   10.1640   49.7476 H      49  UNL49       0.0000
   3773 H          24.0622    9.8968   56.3577 H      49  UNL49       0.0000
   3774 H          23.1294    7.9453   55.0921 H      49  UNL49       0.0000
   3775 H          21.2487   11.5865   50.7931 H      49  UNL49       0.0000
   3776 H          21.5689   10.8970   53.1665 H      49  UNL49       0.0000
   3777 H          21.8651    9.1703   55.3246 H      49  UNL49       0.0000
   3778 N          27.7823   17.1169   53.2376 N.3    49  UNL49       0.0000
   3779 C          25.3782   17.4815   51.9111 C.3    49  UNL49       0.0000
   3780 C          29.8749   15.6129   53.0961 C.3    49  UNL49       0.0000
   3781 O          25.8634   18.2427   54.3592 O.2    49  UNL49       0.0000
   3782 O          27.0208   19.4306   52.4356 O.2    49  UNL49       0.0000
   3783 O          30.0745   18.2444   52.8429 O.2    49  UNL49       0.0000
   3784 O          29.0230   16.9807   50.9527 O.2    49  UNL49       0.0000
   3785 F          24.6602   16.4877   52.5004 F      49  UNL49       0.0000
   3786 F          29.2616   14.5204   52.5804 F      49  UNL49       0.0000
   3787 F          25.9775   16.9696   50.8087 F      49  UNL49       0.0000
   3788 F          24.5055   18.4536   51.5164 F      49  UNL49       0.0000
   3789 F          29.7821   15.5594   54.4448 F      49  UNL49       0.0000
   3790 F          31.1887   15.5569   52.7537 F      49  UNL49       0.0000
   3791 S          26.6170   18.2002   53.1208 S.O2   49  UNL49       0.0000
   3792 S          29.1449   17.1911   52.3896 S.O2   49  UNL49       0.0000
   3793 TI         16.1094   30.3402   11.3125 Ti      1  UNL1        0.0000
   3794 TI         26.9399   33.2215    1.9477 Ti      1  UNL1        0.0000
   3795 TI         20.2061   26.4041    9.4925 Ti      1  UNL1        0.0000
   3796 TI         21.7173   35.5662    3.7195 Ti      1  UNL1        0.0000
   3797 TI         20.7187   37.2445    1.8151 Ti      1  UNL1        0.0000
   3798 TI         22.0943   26.1497   11.4459 Ti      1  UNL1        0.0000
   3799 TI         17.0586   28.6044    9.4210 Ti      1  UNL1        0.0000
   3800 TI         24.9520   33.5240    3.7952 Ti      1  UNL1        0.0000
   3801 H          16.6113   34.2373   11.0930 H       1  UNL1        0.0000
   3802 H          27.7486   29.3154    2.2684 H       1  UNL1        0.0000
   3803 H          12.1495   29.5836   10.9300 H       1  UNL1        0.0000
   3804 H          30.3220   35.2258    2.1483 H       1  UNL1        0.0000
   3805 H          23.0699   22.1152   11.0600 H       1  UNL1        0.0000
   3806 H          16.6602   36.6546    2.1372 H       1  UNL1        0.0000
   3807 H          21.2131   35.6077   -0.0580 H       1  UNL1        0.0000
   3808 H          25.0643   32.9788    0.2478 H       1  UNL1        0.0000
   3809 H          22.6042   25.4826    5.9348 H       1  UNL1        0.0000
   3810 H          19.9938   37.4032    7.3384 H       1  UNL1        0.0000
   3811 H          12.9860   31.9930    9.0651 H       1  UNL1        0.0000
   3812 H          29.6946   31.1371    4.2537 H       1  UNL1        0.0000
   3813 H          15.2871   30.5455    5.7313 H       1  UNL1        0.0000
   3814 H          17.6186   39.0724    4.1683 H       1  UNL1        0.0000
   3815 H          21.1109   40.3473    2.6706 H       1  UNL1        0.0000
   3816 H          27.5908   27.2966    3.4709 H       1  UNL1        0.0000
   3817 H          23.8099   35.2463    2.3809 H       1  UNL1        0.0000
   3818 H          19.1254   28.2524   10.7861 H       1  UNL1        0.0000
   3819 H          26.3290   28.0846    9.8355 H       1  UNL1        0.0000
   3820 H          24.8479   27.6155   10.5829 H       1  UNL1        0.0000
   3821 H          26.9031   32.5182    8.7366 H       1  UNL1        0.0000
   3822 H          26.3334   32.8768    7.1181 H       1  UNL1        0.0000
   3823 H          25.8402   23.1297    9.6455 H       1  UNL1        0.0000
   3824 H          24.5611   24.2303   10.1029 H       1  UNL1        0.0000
   3825 C          27.5179   32.4802    4.8112 C.2     1  UNL1        0.0000
   3826 C          15.1488   30.6016    8.4655 C.3     1  UNL1        0.0000
   3827 C          22.7866   25.3933    8.5678 C.3     1  UNL1        0.0000
   3828 C          19.7811   37.5367    4.6788 C.3     1  UNL1        0.0000
   3829 C          28.4139   31.8759    5.8064 C.2     1  UNL1        0.0000
   3830 C          14.2169   31.2267    7.4884 C.ar    1  UNL1        0.0000
   3831 C          23.7268   24.7790    7.6206 C.ar    1  UNL1        0.0000
   3832 C          18.8913   38.1835    5.6786 C.2     1  UNL1        0.0000
   3833 C          28.1651   31.9508    7.2128 C.3     1  UNL1        0.0000
   3834 C          14.4333   31.1067    6.1004 C.ar    1  UNL1        0.0000
   3835 C          24.8562   24.0187    8.0737 C.ar    1  UNL1        0.0000
   3836 C          17.7966   38.9565    5.2337 C.3     1  UNL1        0.0000
   3837 C          19.1458   38.0127    7.0335 C.2     1  UNL1        0.0000
   3838 C          23.4791   24.9111    6.2367 C.ar    1  UNL1        0.0000
   3839 C          29.5476   31.1769    5.3307 C.3     1  UNL1        0.0000
   3840 C          13.1168   31.9191    7.9871 C.ar    1  UNL1        0.0000
   3841 C          27.7297   29.3945    0.1243 C.2     1  UNL1        0.0000
   3842 C          21.2599   41.1861    0.1493 C.2     1  UNL1        0.0000
   3843 C          30.2141   35.1576   -0.0017 C.2     1  UNL1        0.0000
   3844 C          16.8558   36.7000   -0.0211 C.2     1  UNL1        0.0000
   3845 C          22.4640   33.2230    5.6841 C.3     1  UNL1        0.0000
   3846 C          17.7079   26.1286    7.6022 C.3     1  UNL1        0.0000
   3847 C          27.5938   30.8493    0.1011 C.2     1  UNL1        0.0000
   3848 C          21.1672   39.7526    0.1118 C.2     1  UNL1        0.0000
   3849 C          28.9163   34.5408    0.0451 C.2     1  UNL1        0.0000
   3850 C          18.2581   37.1144    0.0033 C.2     1  UNL1        0.0000
   3851 C          27.7690   28.7254    1.3540 C.2     1  UNL1        0.0000
   3852 C          16.6222   34.8257   12.0069 C.3     1  UNL1        0.0000
   3853 C          30.8694   35.4324    1.2322 C.3     1  UNL1        0.0000
   3854 C          11.5880   29.4042   11.8454 C.ar    1  UNL1        0.0000
   3855 C          26.2738   28.3599   11.8599 C.3     1  UNL1        0.0000
   3856 C          16.1586   36.4696    1.1914 C.2     1  UNL1        0.0000
   3857 C          23.1115   21.5880   12.0090 C.ar    1  UNL1        0.0000
   3858 C          21.2737   41.9373    1.3786 C.3     1  UNL1        0.0000
   3859 N          21.3288   41.3384    2.6167 N.3     1  UNL1        0.0000
   3860 N          25.6947   28.1770   10.6209 N.3     1  UNL1        0.0000
   3861 N          27.0843   32.5971    7.7441 N.3     1  UNL1        0.0000
   3862 N          25.1872   23.8604    9.3911 N.pl3   1  UNL1        0.0000
   3863 O          26.3416   32.8853    5.1770 O.2     1  UNL1        0.0000
   3864 O          15.9178   29.6508    8.0672 O.3     1  UNL1        0.0000
   3865 O          23.1680   25.5178    9.7889 O.3     1  UNL1        0.0000
   3866 O          19.7153   37.9664    3.4792 O.3     1  UNL1        0.0000
   3867 O          20.5516   36.5795    5.0653 O.3     1  UNL1        0.0000
   3868 O          21.6161   25.7618    8.1623 O.3     1  UNL1        0.0000
   3869 O          27.9298   32.5610    3.5995 O.2     1  UNL1        0.0000
   3870 O          15.1068   31.0379    9.6652 O.3     1  UNL1        0.0000
   3871 O          25.2573   32.3061    2.6005 O.3     1  UNL1        0.0000
   3872 O          17.6110   30.1647   10.1655 O.3     1  UNL1        0.0000
   3873 O          26.1960   34.5934    3.0504 O.3     1  UNL1        0.0000
   3874 O          15.8589   28.4400   10.6582 O.3     1  UNL1        0.0000
   3875 O          20.4654   25.2321   10.7529 O.3     1  UNL1        0.0000
   3876 O          22.2338   37.1275    2.9810 O.3     1  UNL1        0.0000
   3877 O          21.4193   27.4936   10.2888 O.3     1  UNL1        0.0000
   3878 O          20.5276   35.3704    2.4636 O.3     1  UNL1        0.0000
   3879 O          22.8366   24.3778   12.0550 O.3     1  UNL1        0.0000
   3880 O          21.0841   39.0511    1.2070 O.2     1  UNL1        0.0000
   3881 O          23.6387   27.1660   12.0499 O.2     1  UNL1        0.0000
   3882 O          18.8481   37.2154    1.1469 O.2     1  UNL1        0.0000
   3883 O          28.3769   34.2406    1.1931 O.2     1  UNL1        0.0000
   3884 O          14.2226   30.2802   11.9809 O.3     1  UNL1        0.0000
   3885 O          27.5814   31.4863    1.2225 O.2     1  UNL1        0.0000
   3886 O          16.4908   32.0625   12.0622 O.2     1  UNL1        0.0000
   3887 O          23.4490   34.6976    3.1015 O.3     1  UNL1        0.0000
   3888 O          18.7471   27.6938   10.0825 O.3     1  UNL1        0.0000
   3889 O          25.9032   33.4724    0.1687 O.3     1  UNL1        0.0000
   3890 O          21.3355   36.5745    0.0020 O.3     1  UNL1        0.0000
   3891 H          22.5342   29.4118    8.3891 H       1  UNL1        0.0000
   3892 H          18.6342   23.6922    6.9078 H       1  UNL1        0.0000
   3893 H          23.3667   38.4395    5.6070 H      49  UNL49       0.0000
   3894 H          23.6576   31.1742    6.9884 H       1  UNL1        0.0000
   3895 H          18.7183   31.2638    7.6403 H       1  UNL1        0.0000
   3896 H          15.1740   26.2331    6.6818 H       1  UNL1        0.0000
   3897 H          20.0743   29.4655    8.6792 H       1  UNL1        0.0000
   3898 H          19.8473   33.0323    6.2636 H       1  UNL1        0.0000
   3899 H          24.4597   36.2522    5.2030 H      49  UNL49       0.0000
   3900 H          10.8388   36.4533    5.7440 H      49  UNL49       0.0000
   3901 C          21.8170   32.2087    6.5577 C.ar    1  UNL1        0.0000
   3902 C          20.5648   30.2380    8.0880 C.ar    1  UNL1        0.0000
   3903 C          25.0231   37.0570    5.6760 C.2    49  UNL49       0.0000
   3904 C          16.9769   25.0678    6.8563 C.ar    1  UNL1        0.0000
   3905 C          20.4222   32.2416    6.7410 C.ar    1  UNL1        0.0000
   3906 C          21.9548   30.2070    7.9219 C.ar    1  UNL1        0.0000
   3907 C          24.4039   38.2918    5.9042 C.2    49  UNL49       0.0000
   3908 C          17.5980   23.8307    6.6069 C.ar    1  UNL1        0.0000
   3909 C          26.3613   36.8544    6.0326 C.3    49  UNL49       0.0000
   3910 C          15.6372   25.2699    6.4785 C.ar    1  UNL1        0.0000
   3911 C          22.5818   31.1885    7.1509 C.ar    1  UNL1        0.0000
   3912 C          19.7985   31.2528    7.5022 C.ar    1  UNL1        0.0000
   3913 O          23.7056   33.0786    5.3893 O.3     1  UNL1        0.0000
   3914 O          17.0785   27.2043    7.9064 O.3     1  UNL1        0.0000
   3915 O          18.9154   25.8983    7.9640 O.3     1  UNL1        0.0000
   3916 O          21.7466   34.1840    5.2412 O.3     1  UNL1        0.0000
   3917 N          24.9106   38.5464   25.1531 N.pl3  49  UNL49       0.0000
   3918 N          25.3676   37.7575   27.1381 N.pl3  49  UNL49       0.0000
   3919 C          25.5545   37.3321   24.9705 C.2    49  UNL49       0.0000
   3920 C          25.8421   36.8395   26.2168 C.2    49  UNL49       0.0000
   3921 C          26.6670   38.7118   29.0258 C.3    49  UNL49       0.0000
   3922 C          24.4391   39.4402   24.0883 C.3    49  UNL49       0.0000
   3923 C          24.7992   38.7806   26.4725 C.3    49  UNL49       0.0000
   3924 C          25.5857   37.7198   28.6023 C.3    49  UNL49       0.0000
   3925 H          25.7740   36.9260   23.9912 H      49  UNL49       0.0000
   3926 H          26.3201   35.9149   26.5187 H      49  UNL49       0.0000
   3927 H          27.6220   38.4895   28.5331 H      49  UNL49       0.0000
   3928 H          25.2872   39.7174   23.4531 H      49  UNL49       0.0000
   3929 H          26.3839   39.7452   28.7887 H      49  UNL49       0.0000
   3930 H          23.6798   38.9093   23.5019 H      49  UNL49       0.0000
   3931 H          26.8144   38.6421   30.1119 H      49  UNL49       0.0000
   3932 H          25.8817   36.6907   28.8464 H      49  UNL49       0.0000
   3933 H          24.0010   40.3319   24.5474 H      49  UNL49       0.0000
   3934 H          24.3211   39.6424   26.9208 H      49  UNL49       0.0000
   3935 H          24.6174   37.9157   29.0789 H      49  UNL49       0.0000
   3936 N          30.5346   45.8623   26.9918 N.3    49  UNL49       0.0000
   3937 C          28.1304   46.2269   25.6654 C.3    49  UNL49       0.0000
   3938 C          32.6271   44.3582   26.8503 C.3    49  UNL49       0.0000
   3939 O          28.6157   46.9880   28.1135 O.2    49  UNL49       0.0000
   3940 O          29.7731   48.1760   26.1899 O.2    49  UNL49       0.0000
   3941 O          32.8268   46.9898   26.5972 O.2    49  UNL49       0.0000
   3942 O          31.7753   45.7261   24.7069 O.2    49  UNL49       0.0000
   3943 F          27.4125   45.2331   26.2547 F      49  UNL49       0.0000
   3944 F          32.0138   43.2658   26.3347 F      49  UNL49       0.0000
   3945 F          28.7297   45.7150   24.5630 F      49  UNL49       0.0000
   3946 F          27.2578   47.1990   25.2706 F      49  UNL49       0.0000
   3947 F          32.5344   44.3048   28.1990 F      49  UNL49       0.0000
   3948 F          33.9410   44.3023   26.5080 F      49  UNL49       0.0000
   3949 S          29.3692   46.9456   26.8751 S.O2   49  UNL49       0.0000
   3950 S          31.8972   45.9365   26.1439 S.O2   49  UNL49       0.0000
   3951 TI         11.4747   23.2738   24.4071 Ti      1  UNL1        0.0000
   3952 TI         22.3052   26.1550   15.0423 Ti      1  UNL1        0.0000
   3953 TI         15.5714   19.3376   22.5871 Ti      1  UNL1        0.0000
   3954 TI         17.0826   28.4998   16.8141 Ti      1  UNL1        0.0000
   3955 TI         16.0840   30.1781   14.9097 Ti      1  UNL1        0.0000
   3956 TI         17.4596   19.0833   24.5405 Ti      1  UNL1        0.0000
   3957 TI         12.4239   21.5379   22.5156 Ti      1  UNL1        0.0000
   3958 TI         20.3174   26.4576   16.8898 Ti      1  UNL1        0.0000
   3959 H          11.9766   27.1709   24.1877 H       1  UNL1        0.0000
   3960 H          23.1140   22.2490   15.3630 H       1  UNL1        0.0000
   3961 H           7.5148   22.5172   24.0247 H       1  UNL1        0.0000
   3962 H          25.6874   28.1593   15.2430 H       1  UNL1        0.0000
   3963 H          18.4352   15.0487   24.1546 H       1  UNL1        0.0000
   3964 H          12.0255   29.5882   15.2318 H       1  UNL1        0.0000
   3965 H          16.5785   28.5413   13.0366 H       1  UNL1        0.0000
   3966 H          20.4297   25.9123   13.3424 H       1  UNL1        0.0000
   3967 H          17.9695   18.4162   19.0294 H       1  UNL1        0.0000
   3968 H          15.3592   30.3368   20.4331 H       1  UNL1        0.0000
   3969 H           8.3513   24.9265   22.1597 H       1  UNL1        0.0000
   3970 H          25.0600   24.0707   17.3483 H       1  UNL1        0.0000
   3971 H          10.6524   23.4791   18.8259 H       1  UNL1        0.0000
   3972 H          12.9840   32.0059   17.2629 H       1  UNL1        0.0000
   3973 H          16.4763   33.2809   15.7652 H       1  UNL1        0.0000
   3974 H          22.9562   20.2301   16.5655 H       1  UNL1        0.0000
   3975 H          19.1752   28.1799   15.4755 H       1  UNL1        0.0000
   3976 H          14.4907   21.1860   23.8808 H       1  UNL1        0.0000
   3977 H          21.6944   21.0181   22.9302 H       1  UNL1        0.0000
   3978 H          20.2132   20.5491   23.6775 H       1  UNL1        0.0000
   3979 H          22.2685   25.4518   21.8313 H       1  UNL1        0.0000
   3980 H          21.6988   25.8103   20.2127 H       1  UNL1        0.0000
   3981 H          21.2056   16.0633   22.7401 H       1  UNL1        0.0000
   3982 H          19.9264   17.1639   23.1975 H       1  UNL1        0.0000
   3983 C          22.8832   25.4138   17.9058 C.2     1  UNL1        0.0000
   3984 C          10.5142   23.5352   21.5601 C.3     1  UNL1        0.0000
   3985 C          18.1519   18.3269   21.6624 C.3     1  UNL1        0.0000
   3986 C          15.1465   30.4703   17.7735 C.3     1  UNL1        0.0000
   3987 C          23.7793   24.8095   18.9010 C.2     1  UNL1        0.0000
   3988 C           9.5823   24.1602   20.5830 C.ar    1  UNL1        0.0000
   3989 C          19.0921   17.7126   20.7152 C.ar    1  UNL1        0.0000
   3990 C          14.2567   31.1171   18.7732 C.2     1  UNL1        0.0000
   3991 C          23.5305   24.8844   20.3074 C.3     1  UNL1        0.0000
   3992 C           9.7987   24.0402   19.1950 C.ar    1  UNL1        0.0000
   3993 C          20.2216   16.9523   21.1683 C.ar    1  UNL1        0.0000
   3994 C          13.1619   31.8900   18.3283 C.3     1  UNL1        0.0000
   3995 C          14.5112   30.9463   20.1281 C.2     1  UNL1        0.0000
   3996 C          18.8444   17.8447   19.3313 C.ar    1  UNL1        0.0000
   3997 C          24.9129   24.1105   18.4253 C.3     1  UNL1        0.0000
   3998 C           8.4821   24.8526   21.0817 C.ar    1  UNL1        0.0000
   3999 C          23.0950   22.3280   13.2189 C.ar    1  UNL1        0.0000
   4000 C          16.6253   34.1196   13.2439 C.2     1  UNL1        0.0000
   4001 C          25.5795   28.0912   13.0929 C.2     1  UNL1        0.0000
   4002 C          12.2211   29.6336   13.0735 C.ar    1  UNL1        0.0000
   4003 C          17.8293   26.1566   18.7787 C.3     1  UNL1        0.0000
   4004 C          13.0732   19.0622   20.6968 C.3     1  UNL1        0.0000
   4005 C          22.9592   23.7829   13.1957 C.3     1  UNL1        0.0000
   4006 C          16.5325   32.6861   13.2064 C.2     1  UNL1        0.0000
   4007 C          24.2816   27.4743   13.1397 C.2     1  UNL1        0.0000
   4008 C          13.6234   30.0479   13.0980 C.3     1  UNL1        0.0000
   4009 C          23.1344   21.6589   14.4486 C.ar    1  UNL1        0.0000
   4010 C          11.9875   27.7593   25.1015 C.3     1  UNL1        0.0000
   4011 C          26.2348   28.3660   14.3268 C.3     1  UNL1        0.0000
   4012 C           6.9533   22.3378   24.9400 C.ar    1  UNL1        0.0000
   4013 C          21.6391   21.2934   24.9545 C.3     1  UNL1        0.0000
   4014 C          11.5239   29.4032   14.2860 C.ar    1  UNL1        0.0000
   4015 C          18.4769   14.5216   25.1036 C.ar    1  UNL1        0.0000
   4016 C          16.6391   34.8708   14.4732 C.3     1  UNL1        0.0000
   4017 N          16.6941   34.2720   15.7113 N.3     1  UNL1        0.0000
   4018 N          21.0601   21.1106   23.7155 N.3     1  UNL1        0.0000
   4019 N          22.4496   25.5306   20.8387 N.3     1  UNL1        0.0000
   4020 N          20.5526   16.7940   22.4857 N.pl3   1  UNL1        0.0000
   4021 O          21.7069   25.8189   18.2716 O.2     1  UNL1        0.0000
   4022 O          11.2832   22.5843   21.1618 O.3     1  UNL1        0.0000
   4023 O          18.5334   18.4514   22.8835 O.3     1  UNL1        0.0000
   4024 O          15.0806   30.8999   16.5739 O.3     1  UNL1        0.0000
   4025 O          15.9170   29.5130   18.1599 O.3     1  UNL1        0.0000
   4026 O          16.9815   18.6954   21.2569 O.3     1  UNL1        0.0000
   4027 O          23.2951   25.4945   16.6941 O.2     1  UNL1        0.0000
   4028 O          10.4722   23.9714   22.7598 O.3     1  UNL1        0.0000
   4029 O          20.6226   25.2397   15.6951 O.3     1  UNL1        0.0000
   4030 O          12.9764   23.0983   23.2601 O.3     1  UNL1        0.0000
   4031 O          21.5614   27.5270   16.1450 O.3     1  UNL1        0.0000
   4032 O          11.2242   21.3736   23.7528 O.3     1  UNL1        0.0000
   4033 O          15.8307   18.1657   23.8475 O.3     1  UNL1        0.0000
   4034 O          17.5992   30.0611   16.0756 O.3     1  UNL1        0.0000
   4035 O          16.7847   20.4271   23.3834 O.3     1  UNL1        0.0000
   4036 O          15.8929   28.3040   15.5582 O.3     1  UNL1        0.0000
   4037 O          18.2019   17.3114   25.1496 O.3     1  UNL1        0.0000
   4038 O          16.4494   31.9847   14.3016 O.2     1  UNL1        0.0000
   4039 O          19.0041   20.0996   25.1445 O.2     1  UNL1        0.0000
   4040 O          14.2135   30.1489   14.2415 O.3     1  UNL1        0.0000
   4041 O          23.7423   27.1742   14.2877 O.2     1  UNL1        0.0000
   4042 O           9.5879   23.2138   25.0755 O.3     1  UNL1        0.0000
   4043 O          22.9467   24.4198   14.3171 O.3     1  UNL1        0.0000
   4044 O          11.8561   24.9961   25.1568 O.2     1  UNL1        0.0000
   4045 O          18.8144   27.6311   16.1961 O.3     1  UNL1        0.0000
   4046 O          14.1125   20.6273   23.1772 O.3     1  UNL1        0.0000
   4047 O          21.2685   26.4060   13.2633 O.3     1  UNL1        0.0000
   4048 O          16.7009   29.5081   13.0966 O.3     1  UNL1        0.0000
   4049 H          17.8995   22.3454   21.4837 H       1  UNL1        0.0000
   4050 H          13.9996   16.6257   20.0024 H       1  UNL1        0.0000
   4051 H          18.7321   31.3730   18.7016 H      49  UNL49       0.0000
   4052 H          19.0229   24.1078   20.0830 H       1  UNL1        0.0000
   4053 H          14.0837   24.1974   20.7349 H       1  UNL1        0.0000
   4054 H          10.5393   19.1666   19.7764 H       1  UNL1        0.0000
   4055 H          15.4396   22.3990   21.7738 H       1  UNL1        0.0000
   4056 H          15.2127   25.9659   19.3582 H       1  UNL1        0.0000
   4057 H          19.8251   29.1858   18.2976 H      49  UNL49       0.0000
   4058 H           6.2041   29.3869   18.8386 H      49  UNL49       0.0000
   4059 C          17.1823   25.1422   19.6524 C.ar    1  UNL1        0.0000
   4060 C          15.9302   23.1716   21.1827 C.ar    1  UNL1        0.0000
   4061 C          20.3884   29.9905   18.7706 C.2    49  UNL49       0.0000
   4062 C          12.3423   18.0014   19.9509 C.ar    1  UNL1        0.0000
   4063 C          15.7875   25.1752   19.8356 C.ar    1  UNL1        0.0000
   4064 C          17.3202   23.1406   21.0165 C.ar    1  UNL1        0.0000
   4065 C          19.7692   31.2253   18.9988 C.2    49  UNL49       0.0000
   4066 C          12.9633   16.7643   19.7015 C.ar    1  UNL1        0.0000
   4067 C          21.7267   29.7880   19.1272 C.3    49  UNL49       0.0000
   4068 C          11.0026   18.2035   19.5731 C.ar    1  UNL1        0.0000
   4069 C          17.9471   24.1221   20.2455 C.ar    1  UNL1        0.0000
   4070 C          15.1639   24.1864   20.5968 C.ar    1  UNL1        0.0000
   4071 O          19.0710   26.0122   18.4839 O.3     1  UNL1        0.0000
   4072 O          12.4439   20.1378   21.0010 O.3     1  UNL1        0.0000
   4073 O          14.2808   18.8318   21.0586 O.3     1  UNL1        0.0000
   4074 O          17.1119   27.1176   18.3358 O.3     1  UNL1        0.0000
   4075 N          20.2759   31.4800   38.2477 N.pl3  49  UNL49       0.0000
   4076 N          20.7330   30.6911   40.2327 N.pl3  49  UNL49       0.0000
   4077 C          20.9198   30.2656   38.0651 C.2    49  UNL49       0.0000
   4078 C          21.2075   29.7731   39.3114 C.2    49  UNL49       0.0000
   4079 C          22.0323   31.6454   42.1204 C.3    49  UNL49       0.0000
   4080 C          19.8045   32.3738   37.1829 C.3    49  UNL49       0.0000
   4081 C          20.1646   31.7142   39.5671 C.3    49  UNL49       0.0000
   4082 C          20.9511   30.6534   41.6969 C.3    49  UNL49       0.0000
   4083 H          21.1394   29.8596   37.0858 H      49  UNL49       0.0000
   4084 H          21.6855   28.8484   39.6133 H      49  UNL49       0.0000
   4085 H          22.9874   31.4230   41.6277 H      49  UNL49       0.0000
   4086 H          20.6525   32.6510   36.5477 H      49  UNL49       0.0000
   4087 H          21.7492   32.6788   41.8833 H      49  UNL49       0.0000
   4088 H          19.0451   31.8429   36.5965 H      49  UNL49       0.0000
   4089 H          22.1798   31.5757   43.2065 H      49  UNL49       0.0000
   4090 H          21.2471   29.6242   41.9410 H      49  UNL49       0.0000
   4091 H          19.3663   33.2654   37.6420 H      49  UNL49       0.0000
   4092 H          19.6865   32.5760   40.0154 H      49  UNL49       0.0000
   4093 H          19.9827   30.8492   42.1735 H      49  UNL49       0.0000
   4094 N          25.8999   38.7958   40.0864 N.3    49  UNL49       0.0000
   4095 C          23.4958   39.1604   38.7600 C.3    49  UNL49       0.0000
   4096 C          27.9925   37.2918   39.9449 C.3    49  UNL49       0.0000
   4097 O          23.9810   39.9216   41.2081 O.2    49  UNL49       0.0000
   4098 O          25.1384   41.1095   39.2845 O.2    49  UNL49       0.0000
   4099 O          28.1921   39.9233   39.6918 O.2    49  UNL49       0.0000
   4100 O          27.1406   38.6597   37.8015 O.2    49  UNL49       0.0000
   4101 F          22.7778   38.1667   39.3493 F      49  UNL49       0.0000
   4102 F          27.3792   36.1993   39.4293 F      49  UNL49       0.0000
   4103 F          24.0951   38.6486   37.6576 F      49  UNL49       0.0000
   4104 F          22.6231   40.1325   38.3652 F      49  UNL49       0.0000
   4105 F          27.8997   37.2384   41.2936 F      49  UNL49       0.0000
   4106 F          29.3063   37.2359   39.6026 F      49  UNL49       0.0000
   4107 S          24.7346   39.8791   39.9697 S.O2   49  UNL49       0.0000
   4108 S          27.2625   38.8700   39.2385 S.O2   49  UNL49       0.0000
   4109 TI          6.8401   16.2074   37.5017 Ti      1  UNL1        0.0000
   4110 TI         17.6706   19.0886   28.1369 Ti      1  UNL1        0.0000
   4111 TI         10.9368   12.2712   35.6817 Ti      1  UNL1        0.0000
   4112 TI         12.4480   21.4333   29.9087 Ti      1  UNL1        0.0000
   4113 TI         11.4494   23.1116   28.0043 Ti      1  UNL1        0.0000
   4114 TI         12.8250   12.0168   37.6351 Ti      1  UNL1        0.0000
   4115 TI          7.7893   14.4715   35.6102 Ti      1  UNL1        0.0000
   4116 TI         15.6827   19.3911   29.9844 Ti      1  UNL1        0.0000
   4117 H           7.3420   20.1045   37.2823 H      49  UNL49       0.0000
   4118 H          18.4793   15.1825   28.4576 H       1  UNL1        0.0000
   4119 H           2.8802   15.4508   37.1193 H      49  UNL49       0.0000
   4120 H          21.0527   21.0929   28.3376 H       1  UNL1        0.0000
   4121 H          13.8006    7.9823   37.2492 H      49  UNL49       0.0000
   4122 H           7.3909   22.5217   28.3264 H       1  UNL1        0.0000
   4123 H          11.9438   21.4748   26.1312 H       1  UNL1        0.0000
   4124 H          15.7950   18.8459   26.4370 H       1  UNL1        0.0000
   4125 H          13.3349   11.3497   32.1240 H       1  UNL1        0.0000
   4126 H          10.7245   23.2703   33.5277 H       1  UNL1        0.0000
   4127 H           3.7167   17.8601   35.2543 H       1  UNL1        0.0000
   4128 H          20.4253   17.0043   30.4429 H       1  UNL1        0.0000
   4129 H           6.0178   16.4127   31.9205 H       1  UNL1        0.0000
   4130 H           8.3493   24.9395   30.3576 H       1  UNL1        0.0000
   4131 H          11.8416   26.2145   28.8598 H       1  UNL1        0.0000
   4132 H          18.3215   13.1637   29.6601 H       1  UNL1        0.0000
   4133 H          14.5406   21.1134   28.5701 H       1  UNL1        0.0000
   4134 H           9.8561   14.1196   36.9754 H       1  UNL1        0.0000
   4135 H          17.0597   13.9517   36.0248 H      49  UNL49       0.0000
   4136 H          15.5786   13.4826   36.7721 H      49  UNL49       0.0000
   4137 H          17.6338   18.3853   34.9259 H       1  UNL1        0.0000
   4138 H          17.0641   18.7439   33.3073 H       1  UNL1        0.0000
   4139 H          16.5709    8.9969   35.8347 H       1  UNL1        0.0000
   4140 H          15.2918   10.0974   36.2921 H       1  UNL1        0.0000
   4141 C          18.2486   18.3474   31.0004 C.2     1  UNL1        0.0000
   4142 C           5.8795   16.4688   34.6547 C.3     1  UNL1        0.0000
   4143 C          13.5173   11.2605   34.7570 C.3     1  UNL1        0.0000
   4144 C          10.5118   23.4038   30.8681 C.3     1  UNL1        0.0000
   4145 C          19.1446   17.7430   31.9956 C.2     1  UNL1        0.0000
   4146 C           4.9476   17.0938   33.6776 C.ar    1  UNL1        0.0000
   4147 C          14.4575   10.6461   33.8098 C.ar    1  UNL1        0.0000
   4148 C           9.6220   24.0506   31.8679 C.2     1  UNL1        0.0000
   4149 C          18.8959   17.8180   33.4020 C.3     1  UNL1        0.0000
   4150 C           5.1640   16.9738   32.2896 C.ar    1  UNL1        0.0000
   4151 C          15.5869    9.8858   34.2629 C.ar    1  UNL1        0.0000
   4152 C           8.5273   24.8236   31.4229 C.3     1  UNL1        0.0000
   4153 C           9.8765   23.8799   33.2227 C.2     1  UNL1        0.0000
   4154 C          14.2098   10.7783   32.4259 C.ar    1  UNL1        0.0000
   4155 C          20.2783   17.0441   31.5199 C.3     1  UNL1        0.0000
   4156 C           3.8475   17.7862   34.1763 C.ar    1  UNL1        0.0000
   4157 C          18.4604   15.2616   26.3135 C.ar    1  UNL1        0.0000
   4158 C          11.9906   27.0532   26.3385 C.2     1  UNL1        0.0000
   4159 C          20.9448   21.0247   26.1875 C.2     1  UNL1        0.0000
   4160 C           7.5865   22.5672   26.1681 C.ar    1  UNL1        0.0000
   4161 C          13.1947   19.0901   31.8733 C.3     1  UNL1        0.0000
   4162 C           8.4386   11.9958   33.7914 C.3     1  UNL1        0.0000
   4163 C          18.3245   16.7165   26.2903 C.3     1  UNL1        0.0000
   4164 C          11.8979   25.6197   26.3010 C.2     1  UNL1        0.0000
   4165 C          19.6470   20.4079   26.2344 C.2     1  UNL1        0.0000
   4166 C           8.9888   22.9815   26.1926 C.3     1  UNL1        0.0000
   4167 C          18.4997   14.5925   27.5432 C.ar    1  UNL1        0.0000
   4168 C           7.3529   20.6929   38.1962 C.3    55  UNL55       0.0000
   4169 C          21.6001   21.2995   27.4215 C.3     1  UNL1        0.0000
   4170 C           2.3187   15.2714   38.0346 C.2    49  UNL49       0.0000
   4171 C          17.0045   14.2270   38.0491 C.3    49  UNL49       0.0000
   4172 C           6.8893   22.3367   27.3806 C.ar    1  UNL1        0.0000
   4173 C          13.8422    7.4551   38.1982 C.2    49  UNL49       0.0000
   4174 C          12.0044   27.8044   27.5678 C.3     1  UNL1        0.0000
   4175 N          12.0595   27.2056   28.8059 N.3     1  UNL1        0.0000
   4176 N          16.4254   14.0442   36.8101 N.3    49  UNL49       0.0000
   4177 N          17.8150   18.4642   33.9333 N.3     1  UNL1        0.0000
   4178 N          15.9179    9.7276   35.5803 N.pl3   1  UNL1        0.0000
   4179 O          17.0723   18.7524   31.3662 O.2     1  UNL1        0.0000
   4180 O           6.6485   15.5179   34.2564 O.3     1  UNL1        0.0000
   4181 O          13.8987   11.3850   35.9781 O.3     1  UNL1        0.0000
   4182 O          10.4460   23.8335   29.6685 O.3     1  UNL1        0.0000
   4183 O          11.2823   22.4466   31.2545 O.3     1  UNL1        0.0000
   4184 O          12.3469   11.6289   34.3515 O.3     1  UNL1        0.0000
   4185 O          18.6605   18.4281   29.7887 O.2     1  UNL1        0.0000
   4186 O           5.8375   16.9050   35.8544 O.3     1  UNL1        0.0000
   4187 O          15.9880   18.1732   28.7897 O.3     1  UNL1        0.0000
   4188 O           8.3417   16.0318   36.3548 O.3     1  UNL1        0.0000
   4189 O          16.9268   20.4605   29.2397 O.3     1  UNL1        0.0000
   4190 O           6.5896   14.3072   36.8474 O.3     1  UNL1        0.0000
   4191 O          11.1961   11.0992   36.9422 O.3     1  UNL1        0.0000
   4192 O          12.9645   22.9946   29.1702 O.3     1  UNL1        0.0000
   4193 O          12.1500   13.3607   36.4780 O.3     1  UNL1        0.0000
   4194 O          11.2583   21.2375   28.6528 O.3     1  UNL1        0.0000
   4195 O          13.5673   10.2450   38.2442 O.3     1  UNL1        0.0000
   4196 O          11.8148   24.9182   27.3962 O.2     1  UNL1        0.0000
   4197 O          14.3694   13.0332   38.2391 O.3     1  UNL1        0.0000
   4198 O           9.5788   23.0825   27.3361 O.3     1  UNL1        0.0000
   4199 O          19.1076   20.1077   27.3823 O.2     1  UNL1        0.0000
   4200 O           4.9533   16.1473   38.1702 O.3     1  UNL1        0.0000
   4201 O          18.3121   17.3534   27.4117 O.3     1  UNL1        0.0000
   4202 O           7.2215   17.9297   38.2514 O.3     1  UNL1        0.0000
   4203 O          14.1798   20.5647   29.2907 O.3     1  UNL1        0.0000
   4204 O           9.4778   13.5609   36.2718 O.3     1  UNL1        0.0000
   4205 O          16.6339   19.3396   26.3579 O.3     1  UNL1        0.0000
   4206 O          12.0662   22.4416   26.1912 O.3     1  UNL1        0.0000
   4207 H          13.2649   15.2790   34.5783 H       1  UNL1        0.0000
   4208 H           9.3649    9.5593   33.0970 H       1  UNL1        0.0000
   4209 H          14.0974   24.3066   31.7962 H      49  UNL49       0.0000
   4210 H          14.3883   17.0414   33.1777 H       1  UNL1        0.0000
   4211 H           9.4490   17.1309   33.8295 H       1  UNL1        0.0000
   4212 H           5.9047   12.1002   32.8710 H       1  UNL1        0.0000
   4213 H          10.8050   15.3326   34.8684 H       1  UNL1        0.0000
   4214 H          10.5780   18.8995   32.4528 H       1  UNL1        0.0000
   4215 H          15.1904   22.1194   31.3922 H      49  UNL49       0.0000
   4216 H           1.5695   22.3204   31.9332 H      49  UNL49       0.0000
   4217 C          12.5477   18.0758   32.7470 C.ar    1  UNL1        0.0000
   4218 C          11.2955   16.1051   34.2773 C.ar    1  UNL1        0.0000
   4219 C          15.7538   22.9241   31.8652 C.2    49  UNL49       0.0000
   4220 C           7.7076   10.9350   33.0455 C.ar    1  UNL1        0.0000
   4221 C          11.1529   18.1088   32.9302 C.ar    1  UNL1        0.0000
   4222 C          12.6855   16.0742   34.1111 C.ar    1  UNL1        0.0000
   4223 C          15.1346   24.1589   32.0934 C.2    49  UNL49       0.0000
   4224 C           8.3287    9.6979   32.7961 C.ar    1  UNL1        0.0000
   4225 C          17.0920   22.7215   32.2219 C.3    49  UNL49       0.0000
   4226 C           6.3679   11.1370   32.6677 C.ar    1  UNL1        0.0000
   4227 C          13.3125   17.0556   33.3401 C.ar    1  UNL1        0.0000
   4228 C          10.5292   17.1200   33.6914 C.ar    1  UNL1        0.0000
   4229 O          14.4363   18.9457   31.5785 O.3     1  UNL1        0.0000
   4230 O           7.8092   13.0714   34.0956 O.3     1  UNL1        0.0000
   4231 O           9.6461   11.7654   34.1532 O.3     1  UNL1        0.0000
   4232 O          12.4773   20.0512   31.4304 O.3     1  UNL1        0.0000
   4233 N          15.6413   24.4135   51.3423 N.pl3  49  UNL49       0.0000
   4234 N          16.0984   23.6246   53.3273 N.pl3  49  UNL49       0.0000
   4235 C          16.2852   23.1992   51.1597 C.2    49  UNL49       0.0000
   4236 C          16.5728   22.7066   52.4060 C.2    49  UNL49       0.0000
   4237 C          17.3977   24.5790   55.2150 C.3    49  UNL49       0.0000
   4238 C          15.1698   25.3074   50.2775 C.3    49  UNL49       0.0000
   4239 C          15.5299   24.6478   52.6617 C.3    49  UNL49       0.0000
   4240 C          16.3164   23.5870   54.7915 C.3    49  UNL49       0.0000
   4241 H          16.5047   22.7931   50.1804 H      49  UNL49       0.0000
   4242 H          17.0508   21.7820   52.7079 H      49  UNL49       0.0000
   4243 H          18.3527   24.3566   54.7223 H      49  UNL49       0.0000
   4244 H          16.0179   25.5846   49.6423 H      49  UNL49       0.0000
   4245 H          17.1146   25.6124   54.9779 H      49  UNL49       0.0000
   4246 H          14.4105   24.7765   49.6911 H      49  UNL49       0.0000
   4247 H          17.5452   24.5093   56.3012 H      49  UNL49       0.0000
   4248 H          16.6124   22.5578   55.0356 H      49  UNL49       0.0000
   4249 H          14.7317   26.1990   50.7366 H      49  UNL49       0.0000
   4250 H          15.0518   25.5095   53.1100 H      49  UNL49       0.0000
   4251 H          15.3481   23.7828   55.2681 H      49  UNL49       0.0000
   4252 N          21.2653   31.7294   53.1810 N.3    49  UNL49       0.0000
   4253 C          18.8611   32.0940   51.8546 C.3    49  UNL49       0.0000
   4254 C          23.3578   30.2254   53.0396 C.3    49  UNL49       0.0000
   4255 O          19.3464   32.8552   54.3027 O.2    49  UNL49       0.0000
   4256 O          20.5038   34.0431   52.3791 O.2    49  UNL49       0.0000
   4257 O          23.5575   32.8569   52.7864 O.2    49  UNL49       0.0000
   4258 O          22.5060   31.5933   50.8961 O.2    49  UNL49       0.0000
   4259 F          18.1432   31.1003   52.4439 F      49  UNL49       0.0000
   4260 F          22.7445   29.1329   52.5239 F      49  UNL49       0.0000
   4261 F          19.4604   31.5822   50.7522 F      49  UNL49       0.0000
   4262 F          17.9885   33.0661   51.4599 F      49  UNL49       0.0000
   4263 F          23.2651   30.1719   54.3883 F      49  UNL49       0.0000
   4264 F          24.6717   30.1695   52.6972 F      49  UNL49       0.0000
   4265 S          20.0999   32.8127   53.0643 S.O2   49  UNL49       0.0000
   4266 S          22.6279   31.8036   52.3331 S.O2   49  UNL49       0.0000
@<TRIPOS>BOND
     1   963  1046    1
     2  1000  1006    2
     3  1000  1012    1
     4   999  1005    2
     5   999  1009    1
     6   489   572    1
     7  1046   953    1
     8  1006  1038    1
     9  2385  2468    1
    10   526   532    2
    11   526   538    1
    12  1005  1039    1
    13   525   531    2
    14   525   535    1
    15    15    98    1
    16   572   479    1
    17   532   564    1
    18  2422  2428    2
    19  2422  2434    1
    20  2421  2427    2
    21  2421  2431    1
    22  1911  1994    1
    23  2468  2375    1
    24    52    58    2
    25    52    64    1
    26  2428  2460    1
    27  1003   997    2
    28  1003  1041    1
    29   531   565    1
    30    51    57    2
    31    51    61    1
    32  1004   998    2
    33  1004  1036    1
    34    98     5    1
    35    58    90    1
    36  3807  3890    1
    37   997  1007    1
    38  1948  1954    2
    39  1948  1960    1
    40  2427  2461    1
    41  1947  1953    2
    42  1947  1957    1
    43  1437  1520    1
    44  1994  1901    1
    45   998  1014    1
    46  1954  1986    1
    47   529   523    2
    48   529   567    1
    49  3844  3850    2
    50  3844  3856    1
    51    57    91    1
    52   530   524    2
    53   530   562    1
    54  1045   964    1
    55  1045   950    1
    56  3843  3849    2
    57  3843  3853    1
    58  3333  3416    1
    59   523   533    1
    60  3890  3797    1
    61  1474  1480    2
    62  1474  1486    1
    63  3850  3882    1
    64  2425  2419    2
    65  2425  2463    1
    66  1953  1987    1
    67  1473  1479    2
    68  1473  1483    1
    69  2426  2420    2
    70  2426  2458    1
    71  1520  1427    1
    72   524   540    1
    73  1480  1512    1
    74  2419  2429    1
    75    55    49    2
    76    55    93    1
    77  3370  3376    2
    78  3370  3382    1
    79  3849  3883    1
    80    56    50    2
    81    56    88    1
    82   571   490    1
    83   571   476    1
    84  3369  3375    2
    85  3369  3379    1
    86  2859  2942    1
    87    49    59    1
    88  3416  3323    1
    89  2420  2436    1
    90  3376  3408    1
    91  1951  1945    2
    92  1951  1989    1
    93  1479  1513    1
    94  1952  1946    2
    95  1952  1984    1
    96  2467  2386    1
    97  2467  2372    1
    98    50    66    1
    99  1945  1955    1
   100  2896  2902    2
   101  2896  2908    1
   102  3847  3841    2
   103  3847  3885    1
   104  3375  3409    1
   105    97    16    1
   106    97     2    1
   107  2895  2901    2
   108  2895  2905    1
   109  3848  3842    2
   110  3848  3880    1
   111  2942  2849    1
   112  1946  1962    1
   113  2902  2934    1
   114  3841  3851    1
   115  1477  1471    2
   116  1477  1515    1
   117  1478  1472    2
   118  1478  1510    1
   119  1993  1912    1
   120  1993  1898    1
   121  1471  1481    1
   122  3842  3858    1
   123  3373  3367    2
   124  3373  3411    1
   125  2901  2935    1
   126  3374  3368    2
   127  3374  3406    1
   128  3889  3808    1
   129  3889  3794    1
   130  1472  1488    1
   131  3367  3377    1
   132  1519  1438    1
   133  1519  1424    1
   134  3368  3384    1
   135  2899  2893    2
   136  2899  2937    1
   137  2900  2894    2
   138  2900  2932    1
   139  3415  3334    1
   140  3415  3320    1
   141  2893  2903    1
   142  2894  2910    1
   143  2941  2860    1
   144  2941  2846    1
   145  1038   953    1
   146  1012   962    1
   147  1039   950    1
   148   564   479    1
   149  1036   953    1
   150  1041   950    1
   151  1009  2434    2
   152  1009   960    1
   153  2460  2375    1
   154   538   488    1
   155   565   476    1
   156    90     5    1
   157   562   479    1
   158   567   476    1
   159  2434  2384    1
   160  2461  2372    1
   161   535  1960    2
   162   535   486    1
   163  1986  1901    1
   164  2458  2375    1
   165    64    14    1
   166    91     2    1
   167  2463  2372    1
   168    88     5    1
   169  2431  3856    2
   170  2431  2382    1
   171  3882  3797    1
   172    93     2    1
   173  1960  1910    1
   174  1987  1898    1
   175    61  1486    2
   176    61    12    1
   177  1512  1427    1
   178  1984  1901    1
   179  1007   540    2
   180  1007   958    1
   181  1989  1898    1
   182  3856  3806    1
   183  3883  3794    1
   184  1957  3382    2
   185  1957  1908    1
   186  1014  1015    1
   187  3408  3323    1
   188  3880  3797    1
   189  1486  1436    1
   190  1513  1424    1
   191  3885  3794    1
   192  1510  1427    1
   193   533    66    2
   194   533   484    1
   195  3853  3804    1
   196  1515  1424    1
   197  3382  3332    1
   198  3409  3320    1
   199  1483  2908    2
   200  1483  1434    1
   201   540   541    1
   202  2934  2849    1
   203  3406  3323    1
   204  2429  1962    2
   205  2429  2380    1
   206  3411  3320    1
   207    59    10    1
   208  3379  3330    1
   209  2436  2437    1
   210  2908  2858    1
   211  2935  2846    1
   212    66    67    1
   213  2932  2849    1
   214  1955  1488    2
   215  1955  1906    1
   216  2937  2846    1
   217  2905  2856    1
   218  1962  1963    1
   219  3851  3384    2
   220  3851  3802    1
   221  1481  1432    1
   222  3858  3859    1
   223  1488  1489    1
   224  3377  2910    2
   225  3377  3328    1
   226  3384  3385    1
   227  2903  2854    1
   228  2910  2911    1
   229   953  1034    1
   230   953  1032    1
   231   953  1022    1
   232   479   560    1
   233   479   558    1
   234   479   548    1
   235  2375  2456    1
   236  2375  2454    1
   237  2375  2444    1
   238     5    86    1
   239     5    84    1
   240     5    74    1
   241   950  1027    1
   242   950  1029    1
   243   950  1025    1
   244  1901  1982    1
   245  1901  1980    1
   246  1901  1970    1
   247  3797  3878    1
   248  3797  3876    1
   249  3797  3866    1
   250   476   553    1
   251   476   555    1
   252   476   551    1
   253  1427  1508    1
   254  1427  1506    1
   255  1427  1496    1
   256  2372  2449    1
   257  2372  2451    1
   258  2372  2447    1
   259  3323  3404    1
   260  3323  3402    1
   261  3323  3392    1
   262     2    79    1
   263     2    81    1
   264     2    77    1
   265  1898  1975    1
   266  1898  1977    1
   267  1898  1973    1
   268  2849  2930    1
   269  2849  2928    1
   270  2849  2918    1
   271  3794  3871    1
   272  3794  3873    1
   273  3794  3869    1
   274  1424  1501    1
   275  1424  1503    1
   276  1424  1499    1
   277  3320  3397    1
   278  3320  3399    1
   279  3320  3395    1
   280  2846  2923    1
   281  2846  2925    1
   282  2846  2921    1
   283   973  1043    1
   284   499   569    1
   285  1034   952    1
   286  2395  2465    1
   287    25    95    1
   288   560   478    1
   289  1921  1991    1
   290  2456  2374    1
   291  3817  3887    1
   292    86     4    1
   293  1447  1517    1
   294  1027   956    1
   295  1982  1900    1
   296  3343  3413    1
   297  1015   971    1
   298  3878  3796    1
   299   553   482    1
   300  1508  1426    1
   301  2869  2939    1
   302   541   497    1
   303   541   972    1
   304  2449  2378    1
   305  3404  3322    1
   306  2437  2393    1
   307    79     8    1
   308    67    23    1
   309    67   498    1
   310  1975  1904    1
   311  2930  2848    1
   312  1963  1919    1
   313  1963  2394    1
   314  3871  3800    1
   315  3859  3815    1
   316  1501  1430    1
   317  1489  1445    1
   318  1489  1920    1
   319  3397  3326    1
   320  3385  3341    1
   321  3385  3816    1
   322  2923  2852    1
   323  2911  2867    1
   324  2911  3342    1
   325  1032   952    1
   326   558   478    1
   327  1029   956    1
   328  2454  2374    1
   329    84     4    1
   330  1043   956    1
   331   555   482    1
   332  1980  1900    1
   333  2451  2378    1
   334   569   482    1
   335  3876  3796    1
   336    81     8    1
   337  1506  1426    1
   338  2465  2378    1
   339  1977  1904    1
   340    95     8    1
   341  3402  3322    1
   342  3873  3800    1
   343  1991  1904    1
   344  1503  1430    1
   345  2928  2848    1
   346  3887  3800    1
   347  3399  3326    1
   348  1517  1430    1
   349  3413  3326    1
   350  2925  2852    1
   351  2939  2852    1
   352  1022   984    1
   353   548   510    1
   354  2444  2406    1
   355    74    36    1
   356  1025   981    1
   357  1970  1932    1
   358   551   507    1
   359  3866  3828    1
   360  1496  1458    1
   361  2447  2403    1
   362    77    33    1
   363  3392  3354    1
   364   952  1023    1
   365   952  1072    1
   366  1973  1929    1
   367  2918  2880    1
   368   478   549    1
   369   478   598    1
   370  3869  3825    1
   371   956  1019    1
   372   956  1069    1
   373  1499  1455    1
   374  2374  2445    1
   375  2374  2494    1
   376     4    75    1
   377     4   124    1
   378  3395  3351    1
   379   482   545    1
   380   482   595    1
   381  1900  1971    1
   382  1900  2020    1
   383  2378  2441    1
   384  2378  2491    1
   385  2921  2877    1
   386  3796  3867    1
   387  3796  3916    1
   388     8    71    1
   389     8   121    1
   390  1426  1497    1
   391  1426  1546    1
   392  1904  1967    1
   393  1904  2017    1
   394  3322  3393    1
   395  3322  3442    1
   396  3800  3863    1
   397  3800  3913    1
   398  1430  1493    1
   399  1430  1543    1
   400  2848  2919    1
   401  2848  2968    1
   402  3326  3389    1
   403  3326  3439    1
   404  2852  2915    1
   405  2852  2965    1
   406   970   992    1
   407   496   518    1
   408   968   995    1
   409  2392  2414    1
   410    22    44    1
   411   494   521    1
   412  1918  1940    1
   413  2390  2417    1
   414  3814  3836    1
   415    20    47    1
   416  1444  1466    1
   417  1916  1943    1
   418  3340  3362    1
   419  3812  3839    1
   420  1442  1469    1
   421  2866  2888    1
   422  3338  3365    1
   423  2864  2891    1
   424   984  1023    1
   425   984   988    1
   426   510   549    1
   427   510   514    1
   428  2406  2445    1
   429  2406  2410    1
   430    36    75    1
   431    36    40    1
   432   981  1019    1
   433   981   985    1
   434  1932  1971    1
   435  1932  1936    1
   436  3828  3867    1
   437  3828  3832    1
   438   507   545    1
   439   507   511    1
   440  1458  1497    1
   441  1458  1462    1
   442  2403  2441    1
   443  2403  2407    1
   444  3354  3393    1
   445  3354  3358    1
   446    33    71    1
   447    33    37    1
   448  1929  1967    1
   449  1929  1933    1
   450  2880  2919    1
   451  2880  2884    1
   452  3825  3863    1
   453  3825  3829    2
   454  1455  1493    1
   455  1455  1459    1
   456  3351  3389    1
   457  3351  3355    2
   458  2877  2915    1
   459  2877  2881    2
   460  1055  1059    1
   461   992   988    1
   462  1072  1001    1
   463   581   585    1
   464   518   514   ar
   465   518   994   ar
   466  2477  2481    1
   467   598   527    1
   468   107   111    1
   469  2414  2410    1
   470   995   985   ar
   471   995  2412   ar
   472  2494  2423    1
   473    44    40   ar
   474    44   520   ar
   475  2003  2007    1
   476   124    53    1
   477  1940  1936   ar
   478  1940  2416   ar
   479  3899  3903    1
   480   521   511   ar
   481   521  1938   ar
   482  2020  1949    1
   483  1069  1001    1
   484  1529  1533    1
   485  3836  3832    1
   486  2417  2407   ar
   487  2417  3834   ar
   488  3916  3845    1
   489  1466  1462   ar
   490  1466  1942   ar
   491  3425  3429    1
   492    47    37   ar
   493    47  1464   ar
   494  1546  1475    1
   495   595   527    1
   496  3362  3358   ar
   497  3362  3838   ar
   498  1943  1933   ar
   499  1943  3360   ar
   500  3442  3371    1
   501  2491  2423    1
   502  2951  2955    1
   503   121    53    1
   504  3839  3829    1
   505  2888  2884   ar
   506  2888  3364   ar
   507  1469  1459   ar
   508  1469  2886   ar
   509  2968  2897    1
   510  2017  1949    1
   511  3365  3355    1
   512  3913  3845    1
   513  1543  1475    1
   514  1049  1063    1
   515  2891  2881    1
   516  3439  3371    1
   517   575   589    1
   518  1059  1063    1
   519  1059  1065    2
   520   988   993    2
   521  2965  2897    1
   522  1001  1057    1
   523  2471  2485    1
   524   101   115    1
   525   969   990    1
   526   585   589   ar
   527   585   591   ar
   528   514   519   ar
   529   527   583    1
   530  1997  2011    1
   531  2481  2485    1
   532  2481  2487    2
   533  2410  2415    2
   534  2423  2479    1
   535  3893  3907    1
   536   495   516    1
   537   111   115   ar
   538   111   117   ar
   539    40    45   ar
   540    53   109    1
   541   985   989   ar
   542  1523  1537    1
   543  2391  2412    1
   544  2007  2011   ar
   545  2007  2013   ar
   546  1936  1941   ar
   547  1949  2005    1
   548  2478  1065    1
   549  3419  3433    1
   550    21    42    1
   551  3903  3907    2
   552  3903  3909    1
   553  3832  3837    2
   554   511   515   ar
   555  3845  3901    1
   556  1917  1938    1
   557  1533  1537   ar
   558  1533  1539   ar
   559  1462  1467   ar
   560  1475  1531    1
   561  2004   591    1
   562  2407  2411   ar
   563  2945  2959    1
   564  3813  3834    1
   565  3429  3433    2
   566  3429  3435    1
   567  3358  3363   ar
   568    37    41   ar
   569  3371  3427    1
   570  3900  2487    1
   571  1443  1464    1
   572   965   994    1
   573  1530   117    1
   574  1933  1937   ar
   575   589  2488   ar
   576  3339  3360    1
   577  2955  2959    2
   578  2955  2961    1
   579  2884  2889   ar
   580  2897  2953    1
   581  3426  2013    1
   582  3829  3833    1
   583   491   520    1
   584  1459  1463   ar
   585   115  2014   ar
   586  2865  2886    1
   587  2387  2416    1
   588  2952  1539    1
   589  3355  3359    1
   590    17    46    1
   591  2011  3910   ar
   592  1913  1942    1
   593   591  2486   ar
   594  2881  2885    1
   595   990   986    1
   596  1537  3436   ar
   597  3809  3838    1
   598  1439  1468    1
   599   117  2012   ar
   600   516   512    1
   601  3335  3364    1
   602  2013  3908   ar
   603  2412  2408   ar
   604    42    38    1
   605  2861  2890    1
   606  1539  3434   ar
   607   994   987   ar
   608  1938  1934   ar
   609  1054  1061    1
   610  3834  3830   ar
   611   520   513   ar
   612  1464  1460   ar
   613   580   587    1
   614  2416  2409   ar
   615  3360  3356   ar
   616    46    39    1
   617  2476  2483    1
   618   106   113    1
   619  1942  1935   ar
   620  2886  2882   ar
   621  2002  2009    1
   622  3838  3831   ar
   623  1468  1461    1
   624  3898  3905    1
   625  1528  1535    1
   626  3364  3357   ar
   627  1066  1052    1
   628  1066  1060    1
   629  3424  3431    1
   630  2890  2883    1
   631   592   578    1
   632   592   586    1
   633  2950  2957    1
   634  1057  1061   ar
   635  1057  1067   ar
   636  2488  2474    1
   637  2488  2482   ar
   638   118   104    1
   639   118   112    1
   640  1064  1060    1
   641  1064  1048    1
   642   583   587   ar
   643   583   593   ar
   644  2014  2000    1
   645  2014  2008   ar
   646  2479  2483   ar
   647  2479  2489   ar
   648  3910  3896    1
   649  3910  3904   ar
   650   590   586    1
   651   590   574    1
   652   109   113   ar
   653   109   119   ar
   654  1540  1526    1
   655  1540  1534    1
   656  2486  2482   ar
   657  2486  2470    1
   658  2005  2009   ar
   659  2005  2015   ar
   660  3436  3422    1
   661  3436  3430   ar
   662   116   112    1
   663   116   100    1
   664  3901  3905   ar
   665  3901  3911   ar
   666  1061  1068   ar
   667  2012  2008   ar
   668  2012  1996    1
   669  1531  1535   ar
   670  1531  1541   ar
   671  2962  2948    1
   672  2962  2956    1
   673  3908  3904   ar
   674  3908  3892    1
   675  3427  3431   ar
   676  3427  3437   ar
   677   587   594   ar
   678  1538  1534    1
   679  1538  1522    1
   680  2483  2490   ar
   681  3434  3430   ar
   682  3434  3418    1
   683  2953  2957   ar
   684  2953  2963   ar
   685   113   120   ar
   686  1060  1002    2
   687  2009  2016   ar
   688  2960  2956    1
   689  2960  2944    1
   690   586   528    2
   691  3905  3912   ar
   692  1535  1542   ar
   693  2482  2424    1
   694   112    54    2
   695  3431  3438   ar
   696  1050  1067    1
   697  2008  1950    1
   698  2957  2964   ar
   699   993   966    1
   700  3904  3846    1
   701   576   593    1
   702  1534  1476    2
   703  2472  2489    1
   704   519   492    1
   705   519   991   ar
   706  3430  3372    1
   707   102   119    1
   708   978  1017    1
   709  2415  2388    1
   710  1998  2015    1
   711    45    18    1
   712    45   517   ar
   713  2956  2898    2
   714  1067  1062   ar
   715  3894  3911    1
   716   504   543    1
   717  1941  1914    1
   718  1941  2413   ar
   719  1524  1541    1
   720   593   588   ar
   721  2400  2439    1
   722  3837  3810    1
   723   989  1017    1
   724   989  2418   ar
   725  3420  3437    1
   726    30    69    1
   727  1467  1440    1
   728  1467  1939   ar
   729  2489  2484   ar
   730   119   114   ar
   731  1926  1965    1
   732  3363  3336    1
   733  3363  3835   ar
   734   515   543    1
   735   515  1944   ar
   736  2946  2963    1
   737  2015  2010   ar
   738  3822  3861    1
   739  2411  2439    1
   740  2411  3840   ar
   741  1452  1491    1
   742  2889  2862    1
   743  2889  3361   ar
   744    41    69    1
   745    41  1470   ar
   746  3911  3906   ar
   747  1541  1536   ar
   748  3348  3387    1
   749  1937  1965    1
   750  1937  3366   ar
   751  3437  3432   ar
   752  3833  3861    1
   753  2874  2913    1
   754  1463  1491    1
   755  1463  2892   ar
   756  2963  2958   ar
   757  3359  3387    1
   758   986   996    2
   759   986   982    1
   760  1068  1051    1
   761  1068  1058   ar
   762  2885  2913    1
   763   512   522    2
   764   512   508    1
   765   594   577    1
   766   594   584   ar
   767  2408  2418   ar
   768  2408  2404    1
   769  2490  2473    1
   770  2490  2480   ar
   771    38    48    2
   772    38    34    1
   773  1002  1070    1
   774  1002  1071    1
   775   120   103    1
   776   120   110   ar
   777   987   991   ar
   778   987   983    1
   779  1934  1944   ar
   780  1934  1930    1
   781  2016  1999    1
   782  2016  2006   ar
   783   528   596    1
   784   528   597    1
   785  3830  3840   ar
   786  3830  3826    1
   787   513   517   ar
   788   513   509    1
   789  3912  3895    1
   790  3912  3902   ar
   791  1460  1470   ar
   792  1460  1456    1
   793  2424  2492    1
   794  2424  2493    1
   795  1542  1525    1
   796  1542  1532   ar
   797  2409  2413   ar
   798  2409  2405    1
   799    54   122    1
   800    54   123    1
   801  3356  3366   ar
   802  3356  3352    1
   803    39    43    2
   804    39    35    1
   805  3438  3421    1
   806  3438  3428   ar
   807  1017   977    1
   808  1950  2018    1
   809  1950  2019    1
   810  1935  1939   ar
   811  1935  1931    1
   812  2882  2892   ar
   813  2882  2878    1
   814  3846  3914    1
   815  3846  3915    1
   816  2964  2947    1
   817  2964  2954   ar
   818  3831  3835   ar
   819  3831  3827    1
   820   543   503    1
   821  1476  1544    1
   822  1476  1545    1
   823  1461  1465    2
   824  1461  1457    1
   825  2439  2399    1
   826  3372  3440    1
   827  3372  3441    1
   828  3357  3361   ar
   829  3357  3353    1
   830    69    29    1
   831  1965  1925    1
   832  2898  2966    1
   833  2898  2967    1
   834  1070   955    1
   835  2883  2887    2
   836  2883  2879    1
   837  1062  1058   ar
   838  1062  1047    1
   839  3861  3821    1
   840  1491  1451    1
   841   596   481    1
   842  1071   951    1
   843   588   584   ar
   844   588   573    1
   845  3387  3347    1
   846   996   967    1
   847  2492  2377    1
   848  2484  2480   ar
   849  2484  2469    1
   850   122     7    1
   851   597   477    1
   852   114   110   ar
   853   114    99    1
   854  2913  2873    1
   855   522   493    1
   856  2018  1903    1
   857  2493  2373    1
   858  1020   982    1
   859  1020   955    1
   860  2010  2006   ar
   861  2010  1995    1
   862   991  1018    1
   863  2418  2389    1
   864   123     3    1
   865  3914  3799    1
   866  1058  1053    1
   867    48    19    1
   868  3906  3902   ar
   869  3906  3891    1
   870  1544  1429    1
   871  2019  1899    1
   872   546   508    1
   873   546   481    1
   874  1536  1532   ar
   875  1536  1521    1
   876   517   544    1
   877  1944  1915    1
   878  3440  3325    1
   879  3915  3795    1
   880   584   579    1
   881  2442  2404    1
   882  2442  2377    1
   883  3432  3428   ar
   884  3432  3417    1
   885  1024   983    1
   886  1024   951    1
   887  2413  2440    1
   888  3840  3811    1
   889  1545  1425    1
   890  2480  2475    1
   891    72    34    1
   892    72     7    1
   893    43    70    1
   894  1470  1441    1
   895  2966  2851    1
   896  3441  3321    1
   897   110   105    1
   898  1968  1930    1
   899  1968  1903    1
   900  2958  2954   ar
   901  2958  2943    1
   902   550   509    1
   903   550   477    1
   904  1939  1966    1
   905  3366  3337    1
   906  2006  2001    1
   907  3864  3826    1
   908  3864  3799    1
   909  2446  2405    1
   910  2446  2373    1
   911  3835  3862    1
   912  2967  2847    1
   913  3902  3897    1
   914  1494  1456    1
   915  1494  1429    1
   916    76    35    1
   917    76     3    1
   918  1465  1492    1
   919  2892  2863    1
   920  1532  1527    1
   921  3390  3352    1
   922  3390  3325    1
   923  1972  1931    1
   924  1972  1899    1
   925  3361  3388    1
   926  3428  3423    1
   927  3868  3827    1
   928  3868  3795    1
   929  2916  2878    1
   930  2916  2851    1
   931  1498  1457    1
   932  1498  1425    1
   933  2887  2914    1
   934  2954  2949    1
   935  3394  3353    1
   936  3394  3321    1
   937  2920  2879    1
   938  2920  2847    1
   939   982  1026    1
   940   508   552    1
   941  2404  2448    1
   942   983  1021    1
   943    34    78    1
   944  1930  1974    1
   945   509   547    1
   946  3826  3870    1
   947  2405  2443    1
   948  1456  1500    1
   949    35    73    1
   950  3352  3396    1
   951  1931  1969    1
   952  3827  3865    1
   953  2878  2922    1
   954  1457  1495    1
   955  3353  3391    1
   956  2879  2917    1
   957  1018   979    1
   958  1018   980    1
   959   955  1044    1
   960   955  1028    1
   961   955  1030    1
   962   544   505    1
   963   544   506    1
   964   481   570    1
   965   481   554    1
   966   481   556    1
   967  2440  2401    1
   968  2440  2402    1
   969   951  1033    1
   970   951  1031    1
   971    70    31    1
   972    70    32    1
   973  2377  2466    1
   974  2377  2450    1
   975  2377  2452    1
   976     7    96    1
   977     7    80    1
   978     7    82    1
   979  1966  1927    1
   980  1966  1928    1
   981   477   559    1
   982   477   557    1
   983  1903  1992    1
   984  1903  1976    1
   985  1903  1978    1
   986  3862  3823    1
   987  3862  3824    1
   988  2373  2455    1
   989  2373  2453    1
   990  1492  1453    1
   991  1492  1454    1
   992  3799  3888    1
   993  3799  3872    1
   994  3799  3874    1
   995     3    85    1
   996     3    83    1
   997  1429  1518    1
   998  1429  1502    1
   999  1429  1504    1
  1000  3388  3349    1
  1001  3388  3350    1
  1002  1899  1981    1
  1003  1899  1979    1
  1004  3325  3414    1
  1005  3325  3398    1
  1006  3325  3400    1
  1007  1026   949    1
  1008  3795  3877    1
  1009  3795  3875    1
  1010  2914  2875    1
  1011  2914  2876    1
  1012  1425  1507    1
  1013  1425  1505    1
  1014  2851  2940    1
  1015  2851  2924    1
  1016  2851  2926    1
  1017   552   475    1
  1018  3321  3403    1
  1019  3321  3401    1
  1020  2448  2371    1
  1021    78     1    1
  1022  2847  2929    1
  1023  2847  2927    1
  1024  1021   954    1
  1025  1974  1897    1
  1026   975  1016    1
  1027  3870  3793    1
  1028   547   480    1
  1029  1500  1423    1
  1030  2443  2376    1
  1031   501   542    1
  1032  3396  3319    1
  1033    73     6    1
  1034  2397  2438    1
  1035  1969  1902    1
  1036    27    68    1
  1037  2922  2845    1
  1038  3865  3798    1
  1039  1923  1964    1
  1040  1495  1428    1
  1041  3819  3860    1
  1042  3391  3324    1
  1043  1449  1490    1
  1044  3345  3386    1
  1045  2917  2850    1
  1046  1044   974    1
  1047  2871  2912    1
  1048   570   500    1
  1049  1028   949    1
  1050  2466  2396    1
  1051    96    26    1
  1052   554   475    1
  1053  1992  1922    1
  1054  2450  2371    1
  1055  3888  3818    1
  1056    80     1    1
  1057  1518  1448    1
  1058  1033   954    1
  1059  1976  1897    1
  1060  3414  3344    1
  1061  3872  3793    1
  1062   559   480    1
  1063  1502  1423    1
  1064  2940  2870    1
  1065  2455  2376    1
  1066  3398  3319    1
  1067    85     6    1
  1068  1981  1902    1
  1069  2924  2845    1
  1070  3877  3798    1
  1071  1507  1428    1
  1072  3403  3324    1
  1073  2929  2850    1
  1074   976  1016    1
  1075  1016  1011    1
  1076   502   542    1
  1077  1030   949    1
  1078  2398  2438    1
  1079   542   537    1
  1080    28    68    1
  1081  2438  2433    1
  1082   556   475    1
  1083  1924  1964    1
  1084    68    63    1
  1085  2452  2371    1
  1086  1031   954    1
  1087  3820  3860    1
  1088  1964  1959    1
  1089    82     1    1
  1090  1450  1490    1
  1091  3860  3855    1
  1092  1978  1897    1
  1093   557   480    1
  1094  3346  3386    1
  1095  1490  1485    1
  1096  3874  3793    1
  1097  2453  2376    1
  1098  3386  3381    1
  1099  1504  1423    1
  1100    83     6    1
  1101  2872  2912    1
  1102  3400  3319    1
  1103  1979  1902    1
  1104  2912  2907    1
  1105   959  1010    1
  1106  3875  3798    1
  1107  2926  2845    1
  1108  1505  1428    1
  1109   485   536    1
  1110  3401  3324    1
  1111  2381  2432    1
  1112    11    62    1
  1113  2927  2850    1
  1114   961  1013    1
  1115  1907  1958    1
  1116   957  1008    1
  1117  3803  3854    1
  1118   487   539    1
  1119  1433  1484    1
  1120  2383  2435    1
  1121   483   534    1
  1122  3329  3380    1
  1123    13    65    1
  1124  2379  2430    1
  1125  1909  1961    1
  1126     9    60    1
  1127  2855  2906    1
  1128  3805  3857    1
  1129  1905  1956    1
  1130  1435  1487    1
  1131  3801  3852    1
  1132  3331  3383    1
  1133  1431  1482    1
  1134   949  1040    1
  1135   949  1042    1
  1136  3327  3378    1
  1137  2857  2909    1
  1138   475   566    1
  1139   475   568    1
  1140  2853  2904    1
  1141  2371  2462    1
  1142  2371  2464    1
  1143     1    92    1
  1144     1    94    1
  1145   954  1037    1
  1146   954  1035    1
  1147   954  1203    1
  1148  1897  1988    1
  1149  1897  1990    1
  1150  3793  3884    1
  1151  3793  3886    1
  1152   480   563    1
  1153   480   561    1
  1154   480   729    1
  1155  1423  1514    1
  1156  1423  1516    1
  1157  2376  2459    1
  1158  2376  2457    1
  1159  2376  2625    1
  1160  3319  3410    1
  1161  3319  3412    1
  1162     6    89    1
  1163     6    87    1
  1164     6   255    1
  1165  1902  1985    1
  1166  1902  1983    1
  1167  1902  2151    1
  1168  2845  2936    1
  1169  2845  2938    1
  1170  3798  3881    1
  1171  3798  3879    1
  1172  3798  4047    1
  1173  1428  1511    1
  1174  1428  1509    1
  1175  1428  1677    1
  1176  3324  3407    1
  1177  3324  3405    1
  1178  3324  3573    1
  1179  2850  2933    1
  1180  2850  2931    1
  1181  2850  3099    1
  1182  1010  1158    1
  1183  1011  2432   ar
  1184  1011  1157   ar
  1185   536   684    1
  1186   537  1958   ar
  1187   537   683   ar
  1188  2432  2580   ar
  1189  2433  3854   ar
  1190  2433  2579   ar
  1191    62   210    1
  1192    63  1484   ar
  1193    63   209   ar
  1194  1040  1164    1
  1195  1958  2106   ar
  1196  1959  3380   ar
  1197  1959  2105   ar
  1198  1008  1156    1
  1199  1013   534   ar
  1200  1013  1155   ar
  1201  3854  4002   ar
  1202   566   690    1
  1203  3855  4001    1
  1204  1484  1632   ar
  1205  1037  1163    1
  1206  1035  1161    1
  1207  1042  1162    1
  1208  1485  2906   ar
  1209  1485  1631   ar
  1210   534   682   ar
  1211   539    60   ar
  1212   539   681   ar
  1213  2462  2586    1
  1214  3380  3528   ar
  1215    92   216    1
  1216  3381  3527    1
  1217  2430  2578    1
  1218  2435  1956   ar
  1219  2435  2577   ar
  1220   563   689    1
  1221   561   687    1
  1222   568   688    1
  1223    60   208   ar
  1224    65   207    1
  1225  1988  2112    1
  1226  2906  3054   ar
  1227  2459  2585    1
  1228  2457  2583    1
  1229  2464  2584    1
  1230  2907  3053    1
  1231  1956  2104   ar
  1232  1961  1482   ar
  1233  1961  2103   ar
  1234  3884  4008    1
  1235    89   215    1
  1236    87   213    1
  1237    94   214    1
  1238  1514  1638    1
  1239  3852  4000    1
  1240  3857  3378   ar
  1241  3857  3999   ar
  1242  1985  2111    1
  1243  1983  2109    1
  1244  1990  2110    1
  1245  1482  1630   ar
  1246  1487  1629    1
  1247  3410  3534    1
  1248  3881  4007    1
  1249  3879  4005    1
  1250  3886  4006    1
  1251  3378  3526   ar
  1252  3383  2904   ar
  1253  3383  3525   ar
  1254  1511  1637    1
  1255  1509  1635    1
  1256  1516  1636    1
  1257  2936  3060    1
  1258  3407  3533    1
  1259  3405  3531    1
  1260  3412  3532    1
  1261  2904  3052   ar
  1262  2909  3051    1
  1263  2933  3059    1
  1264  2931  3057    1
  1265  2938  3058    1
  1266  1121  1204    1
  1267  1158  1164    2
  1268  1158  1170    1
  1269  1157  1163    1
  1270  1157  1167   ar
  1271   647   730    1
  1272  1204  1111    1
  1273  1164  1196    1
  1274  2543  2626    1
  1275   684   690    2
  1276   684   696    1
  1277  1163  1197    1
  1278   683   689    1
  1279   683   693   ar
  1280   173   256    1
  1281   730   637    1
  1282   690   722    1
  1283  2580  2586    1
  1284  2580  2592   ar
  1285  2579  2585    1
  1286  2579  2589   ar
  1287  2069  2152    1
  1288  2626  2533    1
  1289   210   216    2
  1290   210   222    1
  1291  2586  2618    1
  1292  1161  1155    1
  1293  1161  1199    1
  1294   689   723    1
  1295   209   215    1
  1296   209   219   ar
  1297  1162  1156    2
  1298  1162  1194    1
  1299   256   163    1
  1300   216   248    1
  1301  3965  4048    1
  1302  1155  1165   ar
  1303  2106  2112    1
  1304  2106  2118   ar
  1305  2585  2619    1
  1306  2105  2111    1
  1307  2105  2115   ar
  1308  1595  1678    1
  1309  2152  2059    1
  1310  1156  1172    1
  1311  2112  2144    1
  1312   687   681    1
  1313   687   725    1
  1314  4002  4008    1
  1315  4002  4014   ar
  1316   215   249    1
  1317   688   682    1
  1318   688   720    1
  1319  1203  1122    1
  1320  4001  4007    2
  1321  4001  4011    1
  1322  3491  3574    1
  1323   681   691   ar
  1324  4048  3955    1
  1325  1632  1638    1
  1326  1632  1644   ar
  1327  4008  4040    1
  1328  2583  2577    1
  1329  2583  2621    1
  1330  2111  2145    1
  1331  1631  1637    1
  1332  1631  1641   ar
  1333  2584  2578    2
  1334  2584  2616    1
  1335  1678  1585    1
  1336   682   698   ar
  1337  1638  1670    1
  1338  2577  2587   ar
  1339   213   207    2
  1340   213   251    1
  1341  3528  3534    1
  1342  3528  3540   ar
  1343  4007  4041    1
  1344   214   208    1
  1345   214   246    1
  1346   729   648    1
  1347  3527  3533    2
  1348  3527  3537    1
  1349  3017  3100    1
  1350   207   217    1
  1351  3574  3481    1
  1352  2578  2594    1
  1353  3534  3566    1
  1354  2109  2103    1
  1355  2109  2147    1
  1356  1637  1671    1
  1357  2110  2104    1
  1358  2110  2142    1
  1359  2625  2544    1
  1360   208   224   ar
  1361  2103  2113   ar
  1362  3054  3060    1
  1363  3054  3066   ar
  1364  4005  3999    1
  1365  4005  4043    1
  1366  3533  3567    1
  1367   255   174    1
  1368  3053  3059    2
  1369  3053  3063    1
  1370  4006  4000    2
  1371  4006  4038    1
  1372  3100  3007    1
  1373  2104  2120   ar
  1374  3060  3092    1
  1375  3999  4009   ar
  1376  1635  1629    2
  1377  1635  1673    1
  1378  1636  1630    1
  1379  1636  1668    1
  1380  2151  2070    1
  1381  1629  1639    1
  1382  4000  4016    1
  1383  3531  3525    1
  1384  3531  3569    1
  1385  3059  3093    1
  1386  3532  3526    1
  1387  3532  3564    1
  1388  4047  3966    1
  1389  1630  1646   ar
  1390  3525  3535   ar
  1391  1677  1596    1
  1392  3526  3542   ar
  1393  3057  3051    2
  1394  3057  3095    1
  1395  3058  3052    1
  1396  3058  3090    1
  1397  3573  3492    1
  1398  3051  3061    1
  1399  3052  3068   ar
  1400  3099  3018    1
  1401  1196  1111    1
  1402  1170  1120    1
  1403  1197  1108    1
  1404   722   637    1
  1405  1194  1111    1
  1406  1199  1108    1
  1407  1167  2592   ar
  1408  1167  1118    1
  1409  2618  2533    1
  1410   696   646    1
  1411   723   634    1
  1412   248   163    1
  1413   720   637    1
  1414   725   634    1
  1415  2592  2542    1
  1416  2619  2530    1
  1417   693  2118   ar
  1418   693   644    1
  1419  2144  2059    1
  1420  2616  2533    1
  1421   222   172    1
  1422   249   160    1
  1423  2621  2530    1
  1424   246   163    1
  1425  2589  4014   ar
  1426  2589  2540    1
  1427  4040  3955    1
  1428   251   160    1
  1429  2118  2068    1
  1430  2145  2056    1
  1431   219  1644   ar
  1432   219   170    1
  1433  1670  1585    1
  1434  2142  2059    1
  1435  1165   698   ar
  1436  1165  1116    1
  1437  2147  2056    1
  1438  4014  3964    1
  1439  4041  3952    1
  1440  2115  3540   ar
  1441  2115  2066    1
  1442  1172  1173    1
  1443  3566  3481    1
  1444  4038  3955    1
  1445  1644  1594    1
  1446  1671  1582    1
  1447  4043  3952    1
  1448  1668  1585    1
  1449   691   224   ar
  1450   691   642    1
  1451  4011  3962    1
  1452  1673  1582    1
  1453  3540  3490    1
  1454  3567  3478    1
  1455  1641  3066   ar
  1456  1641  1592    1
  1457   698   699    1
  1458  3092  3007    1
  1459  3564  3481    1
  1460  2587  2120   ar
  1461  2587  2538    1
  1462  3569  3478    1
  1463   217   168    1
  1464  3537  3488    1
  1465  2594  2595    1
  1466  3066  3016    1
  1467  3093  3004    1
  1468   224   225    1
  1469  3090  3007    1
  1470  2113  1646   ar
  1471  2113  2064    1
  1472  3095  3004    1
  1473  3063  3014    1
  1474  2120  2121    1
  1475  4009  3542   ar
  1476  4009  3960    1
  1477  1639  1590    1
  1478  4016  4017    1
  1479  1646  1647    1
  1480  3535  3068   ar
  1481  3535  3486    1
  1482  3542  3543    1
  1483  3061  3012    1
  1484  3068  3069    1
  1485  1111  1192    1
  1486  1111  1190    1
  1487  1111  1180    1
  1488   637   718    1
  1489   637   716    1
  1490   637   706    1
  1491  2533  2614    1
  1492  2533  2612    1
  1493  2533  2602    1
  1494   163   244    1
  1495   163   242    1
  1496   163   232    1
  1497  1108  1185    1
  1498  1108  1187    1
  1499  1108  1183    1
  1500  2059  2140    1
  1501  2059  2138    1
  1502  2059  2128    1
  1503  3955  4036    1
  1504  3955  4034    1
  1505  3955  4024    1
  1506   634   711    1
  1507   634   713    1
  1508   634   709    1
  1509  1585  1666    1
  1510  1585  1664    1
  1511  1585  1654    1
  1512  2530  2607    1
  1513  2530  2609    1
  1514  2530  2605    1
  1515  3481  3562    1
  1516  3481  3560    1
  1517  3481  3550    1
  1518   160   237    1
  1519   160   239    1
  1520   160   235    1
  1521  2056  2133    1
  1522  2056  2135    1
  1523  2056  2131    1
  1524  3007  3088    1
  1525  3007  3086    1
  1526  3007  3076    1
  1527  3952  4029    1
  1528  3952  4031    1
  1529  3952  4027    1
  1530  1582  1659    1
  1531  1582  1661    1
  1532  1582  1657    1
  1533  3478  3555    1
  1534  3478  3557    1
  1535  3478  3553    1
  1536  3004  3081    1
  1537  3004  3083    1
  1538  3004  3079    1
  1539  1131  1201    1
  1540   657   727    1
  1541  1192  1110    1
  1542  2553  2623    1
  1543   183   253    1
  1544   718   636    1
  1545  2079  2149    1
  1546  2614  2532    1
  1547  3975  4045    1
  1548   244   162    1
  1549  1605  1675    1
  1550  1185  1114    1
  1551  2140  2058    1
  1552  3501  3571    1
  1553  1173  1129    1
  1554  4036  3954    1
  1555   711   640    1
  1556  1666  1584    1
  1557  3027  3097    1
  1558   699   655    1
  1559   699  1130    1
  1560  2607  2536    1
  1561  3562  3480    1
  1562  2595  2551    1
  1563   237   166    1
  1564   225   181    1
  1565   225   656    1
  1566  2133  2062    1
  1567  3088  3006    1
  1568  2121  2077    1
  1569  2121  2552    1
  1570  4029  3958    1
  1571  4017  3973    1
  1572  1659  1588    1
  1573  1647  1603    1
  1574  1647  2078    1
  1575  3555  3484    1
  1576  3543  3499    1
  1577  3543  3974    1
  1578  3081  3010    1
  1579  3069  3025    1
  1580  3069  3500    1
  1581  1190  1110    1
  1582   716   636    1
  1583  1187  1114    1
  1584  2612  2532    1
  1585   242   162    1
  1586  1201  1114    1
  1587   713   640    1
  1588  2138  2058    1
  1589  2609  2536    1
  1590   727   640    1
  1591  4034  3954    1
  1592   239   166    1
  1593  1664  1584    1
  1594  2623  2536    1
  1595  2135  2062    1
  1596   253   166    1
  1597  3560  3480    1
  1598  4031  3958    1
  1599  2149  2062    1
  1600  1661  1588    1
  1601  3086  3006    1
  1602  4045  3958    1
  1603  3557  3484    1
  1604  1675  1588    1
  1605  3571  3484    1
  1606  3083  3010    1
  1607  3097  3010    1
  1608  1180  1142    1
  1609   706   668    1
  1610  2602  2564    1
  1611   232   194    1
  1612  1183  1139    1
  1613  2128  2090    1
  1614   709   665    1
  1615  4024  3986    1
  1616  1654  1616    1
  1617  2605  2561    1
  1618   235   191    1
  1619  3550  3512    1
  1620  1110  1181    1
  1621  1110  1230    1
  1622  2131  2087    1
  1623  3076  3038    1
  1624   636   707    1
  1625   636   756    1
  1626  4027  3983    1
  1627  1114  1177    1
  1628  1114  1227    1
  1629  1657  1613    1
  1630  2532  2603    1
  1631  2532  2652    1
  1632   162   233    1
  1633   162   282    1
  1634  3553  3509    1
  1635   640   703    1
  1636   640   753    1
  1637  2058  2129    1
  1638  2058  2178    1
  1639  2536  2599    1
  1640  2536  2649    1
  1641  3079  3035    1
  1642  3954  4025    1
  1643  3954  4074    1
  1644   166   229    1
  1645   166   279    1
  1646  1584  1655    1
  1647  1584  1704    1
  1648  2062  2125    1
  1649  2062  2175    1
  1650  3480  3551    1
  1651  3480  3600    1
  1652  3958  4021    1
  1653  3958  4071    1
  1654  1588  1651    1
  1655  1588  1701    1
  1656  3006  3077    1
  1657  3006  3126    1
  1658  3484  3547    1
  1659  3484  3597    1
  1660  3010  3073    1
  1661  3010  3123    1
  1662  1128  1150    1
  1663   654   676    1
  1664  1126  1153    1
  1665  2550  2572    1
  1666   180   202    1
  1667   652   679    1
  1668  2076  2098    1
  1669  2548  2575    1
  1670  3972  3994    1
  1671   178   205    1
  1672  1602  1624    1
  1673  2074  2101    1
  1674  3498  3520    1
  1675  3970  3997    1
  1676  1600  1627    1
  1677  3024  3046    1
  1678  3496  3523    1
  1679  3022  3049    1
  1680  1142  1181    1
  1681  1142  1146    1
  1682   668   707    1
  1683   668   672    1
  1684  2564  2603    1
  1685  2564  2568    1
  1686   194   233    1
  1687   194   198    1
  1688  1139  1177    1
  1689  1139  1143    1
  1690  2090  2129    1
  1691  2090  2094    1
  1692  3986  4025    1
  1693  3986  3990    1
  1694   665   703    1
  1695   665   669    1
  1696  1616  1655    1
  1697  1616  1620    1
  1698  2561  2599    1
  1699  2561  2565    1
  1700  3512  3551    1
  1701  3512  3516    1
  1702   191   229    1
  1703   191   195    1
  1704  2087  2125    1
  1705  2087  2091    1
  1706  3038  3077    1
  1707  3038  3042    1
  1708  3983  4021    1
  1709  3983  3987    2
  1710  1613  1651    1
  1711  1613  1617    1
  1712  3509  3547    1
  1713  3509  3513    2
  1714  3035  3073    1
  1715  3035  3039    2
  1716  1213  1217    1
  1717  1150  1146    1
  1718  1230  1159    1
  1719   739   743    1
  1720   676   672   ar
  1721   676  1152   ar
  1722  2635  2639    1
  1723   756   685    1
  1724   265   269    1
  1725  2572  2568    1
  1726  1153  1143   ar
  1727  1153  2570   ar
  1728  2652  2581    1
  1729   202   198   ar
  1730   202   678   ar
  1731  2161  2165    1
  1732   282   211    1
  1733  2098  2094   ar
  1734  2098  2574   ar
  1735  4057  4061    1
  1736   679   669   ar
  1737   679  2096   ar
  1738  2178  2107    1
  1739  1227  1159    1
  1740  1687  1691    1
  1741  3994  3990    1
  1742  2575  2565   ar
  1743  2575  3992   ar
  1744  4074  4003    1
  1745  1624  1620   ar
  1746  1624  2100   ar
  1747  3583  3587    1
  1748   205   195   ar
  1749   205  1622   ar
  1750  1704  1633    1
  1751   753   685    1
  1752  3520  3516   ar
  1753  3520  3996   ar
  1754  2101  2091   ar
  1755  2101  3518   ar
  1756  3600  3529    1
  1757  2649  2581    1
  1758  3109  3113    1
  1759   279   211    1
  1760  3997  3987    1
  1761  3046  3042   ar
  1762  3046  3522   ar
  1763  1627  1617   ar
  1764  1627  3044   ar
  1765  3126  3055    1
  1766  2175  2107    1
  1767  3523  3513    1
  1768  4071  4003    1
  1769  1701  1633    1
  1770  1207  1221    1
  1771  3049  3039    1
  1772  3597  3529    1
  1773   733   747    1
  1774  1217  1221    1
  1775  1217  1223    2
  1776  1146  1151    2
  1777  3123  3055    1
  1778  1159  1215    1
  1779  2629  2643    1
  1780   259   273    1
  1781  1127  1148    1
  1782   743   747   ar
  1783   743   749   ar
  1784   672   677   ar
  1785   685   741    1
  1786  2155  2169    1
  1787  2639  2643    1
  1788  2639  2645    2
  1789  2568  2573    2
  1790  2581  2637    1
  1791  4051  4065    1
  1792   653   674    1
  1793   269   273   ar
  1794   269   275   ar
  1795   198   203   ar
  1796   211   267    1
  1797  1143  1147   ar
  1798  1681  1695    1
  1799  2549  2570    1
  1800  2165  2169   ar
  1801  2165  2171   ar
  1802  2094  2099   ar
  1803  2107  2163    1
  1804  2636  1223    1
  1805  3577  3591    1
  1806   179   200    1
  1807  4061  4065    2
  1808  4061  4067    1
  1809  3990  3995    2
  1810   669   673   ar
  1811  4003  4059    1
  1812  2075  2096    1
  1813  1691  1695   ar
  1814  1691  1697   ar
  1815  1620  1625   ar
  1816  1633  1689    1
  1817  2162   749    1
  1818  2565  2569   ar
  1819  3103  3117    1
  1820  3971  3992    1
  1821  3587  3591    2
  1822  3587  3593    1
  1823  3516  3521   ar
  1824   195   199   ar
  1825  3529  3585    1
  1826  4058  2645    1
  1827  1601  1622    1
  1828  1123  1152    1
  1829  1688   275    1
  1830  2091  2095   ar
  1831   747  2646   ar
  1832  3497  3518    1
  1833  3113  3117    2
  1834  3113  3119    1
  1835  3042  3047   ar
  1836  3055  3111    1
  1837  3584  2171    1
  1838  3987  3991    1
  1839   649   678    1
  1840  1617  1621   ar
  1841   273  2172   ar
  1842  3023  3044    1
  1843  2545  2574    1
  1844  3110  1697    1
  1845  3513  3517    1
  1846   175   204    1
  1847  2169  4068   ar
  1848  2071  2100    1
  1849   749  2644   ar
  1850  3039  3043    1
  1851  1148  1144    1
  1852  1695  3594   ar
  1853  3967  3996    1
  1854  1597  1626    1
  1855   275  2170   ar
  1856   674   670    1
  1857  3493  3522    1
  1858  2171  4066   ar
  1859  2570  2566   ar
  1860   200   196    1
  1861  3019  3048    1
  1862  1697  3592   ar
  1863  1152  1145   ar
  1864  2096  2092   ar
  1865  1212  1219    1
  1866  3992  3988   ar
  1867   678   671   ar
  1868  1622  1618   ar
  1869   738   745    1
  1870  2574  2567   ar
  1871  3518  3514   ar
  1872   204   197    1
  1873  2634  2641    1
  1874   264   271    1
  1875  2100  2093   ar
  1876  3044  3040   ar
  1877  2160  2167    1
  1878  3996  3989   ar
  1879  1626  1619    1
  1880  4056  4063    1
  1881  1686  1693    1
  1882  3522  3515   ar
  1883  1224  1210    1
  1884  1224  1218    1
  1885  3582  3589    1
  1886  3048  3041    1
  1887   750   736    1
  1888   750   744    1
  1889  3108  3115    1
  1890  1215  1219   ar
  1891  1215  1225   ar
  1892  2646  2632    1
  1893  2646  2640   ar
  1894   276   262    1
  1895   276   270    1
  1896  1222  1218    1
  1897  1222  1206    1
  1898   741   745   ar
  1899   741   751   ar
  1900  2172  2158    1
  1901  2172  2166   ar
  1902  2637  2641   ar
  1903  2637  2647   ar
  1904  4068  4054    1
  1905  4068  4062   ar
  1906   748   744    1
  1907   748   732    1
  1908   267   271   ar
  1909   267   277   ar
  1910  1698  1684    1
  1911  1698  1692    1
  1912  2644  2640   ar
  1913  2644  2628    1
  1914  2163  2167   ar
  1915  2163  2173   ar
  1916  3594  3580    1
  1917  3594  3588   ar
  1918   274   270    1
  1919   274   258    1
  1920  4059  4063   ar
  1921  4059  4069   ar
  1922  1219  1226   ar
  1923  2170  2166   ar
  1924  2170  2154    1
  1925  1689  1693   ar
  1926  1689  1699   ar
  1927  3120  3106    1
  1928  3120  3114    1
  1929  4066  4062   ar
  1930  4066  4050    1
  1931  3585  3589   ar
  1932  3585  3595   ar
  1933   745   752   ar
  1934  1696  1692    1
  1935  1696  1680    1
  1936  2641  2648   ar
  1937  3592  3588   ar
  1938  3592  3576    1
  1939  3111  3115   ar
  1940  3111  3121   ar
  1941   271   278   ar
  1942  1218  1160    2
  1943  2167  2174   ar
  1944  3118  3114    1
  1945  3118  3102    1
  1946   744   686    2
  1947  4063  4070   ar
  1948  1693  1700   ar
  1949  2640  2582    1
  1950   270   212    2
  1951  3589  3596   ar
  1952  1208  1225    1
  1953  2166  2108    1
  1954  3115  3122   ar
  1955  1151  1124    1
  1956  4062  4004    1
  1957   734   751    1
  1958  1692  1634    2
  1959  2630  2647    1
  1960   677   650    1
  1961   677  1149   ar
  1962  3588  3530    1
  1963   260   277    1
  1964  1136  1175    1
  1965  2573  2546    1
  1966  2156  2173    1
  1967   203   176    1
  1968   203   675   ar
  1969  3114  3056    2
  1970  1225  1220   ar
  1971  4052  4069    1
  1972   662   701    1
  1973  2099  2072    1
  1974  2099  2571   ar
  1975  1682  1699    1
  1976   751   746   ar
  1977  2558  2597    1
  1978  3995  3968    1
  1979  1147  1175    1
  1980  1147  2576   ar
  1981  3578  3595    1
  1982   188   227    1
  1983  1625  1598    1
  1984  1625  2097   ar
  1985  2647  2642   ar
  1986   277   272   ar
  1987  2084  2123    1
  1988  3521  3494    1
  1989  3521  3993   ar
  1990   673   701    1
  1991   673  2102   ar
  1992  3104  3121    1
  1993  2173  2168   ar
  1994  3980  4019    1
  1995  2569  2597    1
  1996  2569  3998   ar
  1997  1610  1649    1
  1998  3047  3020    1
  1999  3047  3519   ar
  2000   199   227    1
  2001   199  1628   ar
  2002  4069  4064   ar
  2003  1699  1694   ar
  2004  3506  3545    1
  2005  2095  2123    1
  2006  2095  3524   ar
  2007  3595  3590   ar
  2008  3991  4019    1
  2009  3032  3071    1
  2010  1621  1649    1
  2011  1621  3050   ar
  2012  3121  3116   ar
  2013  3517  3545    1
  2014  1144  1154    2
  2015  1144  1140    1
  2016  1226  1209    1
  2017  1226  1216   ar
  2018  3043  3071    1
  2019   670   680    2
  2020   670   666    1
  2021   752   735    1
  2022   752   742   ar
  2023  2566  2576   ar
  2024  2566  2562    1
  2025  2648  2631    1
  2026  2648  2638   ar
  2027   196   206    2
  2028   196   192    1
  2029  1160  1228    1
  2030  1160  1229    1
  2031   278   261    1
  2032   278   268   ar
  2033  1145  1149   ar
  2034  1145  1141    1
  2035  2092  2102   ar
  2036  2092  2088    1
  2037  2174  2157    1
  2038  2174  2164   ar
  2039   686   754    1
  2040   686   755    1
  2041  3988  3998   ar
  2042  3988  3984    1
  2043   671   675   ar
  2044   671   667    1
  2045  4070  4053    1
  2046  4070  4060   ar
  2047  1618  1628   ar
  2048  1618  1614    1
  2049  2582  2650    1
  2050  2582  2651    1
  2051  1700  1683    1
  2052  1700  1690   ar
  2053  2567  2571   ar
  2054  2567  2563    1
  2055   212   280    1
  2056   212   281    1
  2057  3514  3524   ar
  2058  3514  3510    1
  2059   197   201    2
  2060   197   193    1
  2061  3596  3579    1
  2062  3596  3586   ar
  2063  1175  1135    1
  2064  2108  2176    1
  2065  2108  2177    1
  2066  2093  2097   ar
  2067  2093  2089    1
  2068  3040  3050   ar
  2069  3040  3036    1
  2070  4004  4072    1
  2071  4004  4073    1
  2072  3122  3105    1
  2073  3122  3112   ar
  2074  3989  3993   ar
  2075  3989  3985    1
  2076   701   661    1
  2077  1634  1702    1
  2078  1634  1703    1
  2079  1619  1623    2
  2080  1619  1615    1
  2081  2597  2557    1
  2082  3530  3598    1
  2083  3530  3599    1
  2084  3515  3519   ar
  2085  3515  3511    1
  2086   227   187    1
  2087  2123  2083    1
  2088  3056  3124    1
  2089  3056  3125    1
  2090  1228  1113    1
  2091  3041  3045    2
  2092  3041  3037    1
  2093  1220  1216   ar
  2094  1220  1205    1
  2095  4019  3979    1
  2096  1649  1609    1
  2097   754   639    1
  2098  1229  1109    1
  2099   746   742   ar
  2100   746   731    1
  2101  3545  3505    1
  2102  1154  1125    1
  2103  2650  2535    1
  2104  2642  2638   ar
  2105  2642  2627    1
  2106   280   165    1
  2107   755   635    1
  2108   272   268   ar
  2109   272   257    1
  2110  3071  3031    1
  2111   680   651    1
  2112  2176  2061    1
  2113  2651  2531    1
  2114  1178  1140    1
  2115  1178  1113    1
  2116  2168  2164   ar
  2117  2168  2153    1
  2118  1149  1176    1
  2119  2576  2547    1
  2120   281   161    1
  2121  4072  3957    1
  2122  1216  1211    1
  2123   206   177    1
  2124  4064  4060   ar
  2125  4064  4049    1
  2126  1702  1587    1
  2127  2177  2057    1
  2128   704   666    1
  2129   704   639    1
  2130  1694  1690   ar
  2131  1694  1679    1
  2132   675   702    1
  2133  2102  2073    1
  2134  3598  3483    1
  2135  4073  3953    1
  2136   742   737    1
  2137  2600  2562    1
  2138  2600  2535    1
  2139  3590  3586   ar
  2140  3590  3575    1
  2141  1182  1141    1
  2142  1182  1109    1
  2143  2571  2598    1
  2144  3998  3969    1
  2145  1703  1583    1
  2146  2638  2633    1
  2147   230   192    1
  2148   230   165    1
  2149   201   228    1
  2150  1628  1599    1
  2151  3124  3009    1
  2152  3599  3479    1
  2153   268   263    1
  2154  2126  2088    1
  2155  2126  2061    1
  2156  3116  3112   ar
  2157  3116  3101    1
  2158   708   667    1
  2159   708   635    1
  2160  2097  2124    1
  2161  3524  3495    1
  2162  2164  2159    1
  2163  4022  3984    1
  2164  4022  3957    1
  2165  2604  2563    1
  2166  2604  2531    1
  2167  3993  4020    1
  2168  3125  3005    1
  2169  4060  4055    1
  2170  1652  1614    1
  2171  1652  1587    1
  2172   234   193    1
  2173   234   161    1
  2174  1623  1650    1
  2175  3050  3021    1
  2176  1690  1685    1
  2177  3548  3510    1
  2178  3548  3483    1
  2179  2130  2089    1
  2180  2130  2057    1
  2181  3519  3546    1
  2182  3586  3581    1
  2183  4026  3985    1
  2184  4026  3953    1
  2185  3074  3036    1
  2186  3074  3009    1
  2187  1656  1615    1
  2188  1656  1583    1
  2189  3045  3072    1
  2190  3112  3107    1
  2191  3552  3511    1
  2192  3552  3479    1
  2193  3078  3037    1
  2194  3078  3005    1
  2195  1140  1184    1
  2196   666   710    1
  2197  2562  2606    1
  2198  1141  1179    1
  2199   192   236    1
  2200  2088  2132    1
  2201   667   705    1
  2202  3984  4028    1
  2203  2563  2601    1
  2204  1614  1658    1
  2205   193   231    1
  2206  3510  3554    1
  2207  2089  2127    1
  2208  3985  4023    1
  2209  3036  3080    1
  2210  1615  1653    1
  2211  3511  3549    1
  2212  3037  3075    1
  2213  1176  1137    1
  2214  1176  1138    1
  2215  1113  1202    1
  2216  1113  1186    1
  2217  1113  1188    1
  2218   702   663    1
  2219   702   664    1
  2220   639   728    1
  2221   639   712    1
  2222   639   714    1
  2223  2598  2559    1
  2224  2598  2560    1
  2225  1109  1191    1
  2226  1109  1189    1
  2227   228   189    1
  2228   228   190    1
  2229  2535  2624    1
  2230  2535  2608    1
  2231  2535  2610    1
  2232   165   254    1
  2233   165   238    1
  2234   165   240    1
  2235  2124  2085    1
  2236  2124  2086    1
  2237   635   717    1
  2238   635   715    1
  2239  2061  2150    1
  2240  2061  2134    1
  2241  2061  2136    1
  2242  4020  3981    1
  2243  4020  3982    1
  2244  2531  2613    1
  2245  2531  2611    1
  2246  1650  1611    1
  2247  1650  1612    1
  2248  3957  4046    1
  2249  3957  4030    1
  2250  3957  4032    1
  2251   161   243    1
  2252   161   241    1
  2253  1587  1676    1
  2254  1587  1660    1
  2255  1587  1662    1
  2256  3546  3507    1
  2257  3546  3508    1
  2258  2057  2139    1
  2259  2057  2137    1
  2260  3483  3572    1
  2261  3483  3556    1
  2262  3483  3558    1
  2263  1184  1107    1
  2264  3953  4035    1
  2265  3953  4033    1
  2266  3072  3033    1
  2267  3072  3034    1
  2268  1583  1665    1
  2269  1583  1663    1
  2270  3009  3098    1
  2271  3009  3082    1
  2272  3009  3084    1
  2273   710   633    1
  2274  3479  3561    1
  2275  3479  3559    1
  2276  2606  2529    1
  2277   236   159    1
  2278  3005  3087    1
  2279  3005  3085    1
  2280  1179  1112    1
  2281  2132  2055    1
  2282  1133  1174    1
  2283  4028  3951    1
  2284   705   638    1
  2285  1658  1581    1
  2286  2601  2534    1
  2287   659   700    1
  2288  3554  3477    1
  2289   231   164    1
  2290  2555  2596    1
  2291  2127  2060    1
  2292   185   226    1
  2293  3080  3003    1
  2294  4023  3956    1
  2295  2081  2122    1
  2296  1653  1586    1
  2297  3977  4018    1
  2298  3549  3482    1
  2299  1607  1648    1
  2300  3503  3544    1
  2301  3075  3008    1
  2302  1202  1132    1
  2303  3029  3070    1
  2304   728   658    1
  2305  1186  1107    1
  2306  2624  2554    1
  2307   254   184    1
  2308   712   633    1
  2309  2150  2080    1
  2310  2608  2529    1
  2311  4046  3976    1
  2312   238   159    1
  2313  1676  1606    1
  2314  1191  1112    1
  2315  2134  2055    1
  2316  3572  3502    1
  2317  4030  3951    1
  2318   717   638    1
  2319  1084  1078    1
  2320  1660  1581    1
  2321  3098  3028    1
  2322  2613  2534    1
  2323  3556  3477    1
  2324   243   164    1
  2325  1086  1078    1
  2326   610   604    1
  2327  2139  2060    1
  2328  2506  2500    1
  2329  3082  3003    1
  2330   612   604    1
  2331  4035  3956    1
  2332   136   130    1
  2333  1665  1586    1
  2334  2508  2500    1
  2335  2032  2026    1
  2336   138   130    1
  2337  3561  3482    1
  2338  3928  3922    1
  2339  2034  2026    1
  2340  1558  1552    1
  2341  3087  3008    1
  2342  1134  1174    1
  2343  3930  3922    1
  2344  3454  3448    1
  2345  1560  1552    1
  2346  1174  1169    1
  2347   660   700    1
  2348  3456  3448    1
  2349  2980  2974    1
  2350  1188  1107    1
  2351  2556  2596    1
  2352   700   695    1
  2353   186   226    1
  2354  2982  2974    1
  2355  2596  2591    1
  2356   714   633    1
  2357  2082  2122    1
  2358   226   221    1
  2359  2610  2529    1
  2360  1189  1112    1
  2361  3978  4018    1
  2362  2122  2117    1
  2363   240   159    1
  2364  1608  1648    1
  2365  4018  4013    1
  2366  2136  2055    1
  2367   715   638    1
  2368  3504  3544    1
  2369  1648  1643    1
  2370  4032  3951    1
  2371  2611  2534    1
  2372  3544  3539    1
  2373  1662  1581    1
  2374   241   164    1
  2375  3030  3070    1
  2376  3558  3477    1
  2377  1081  1075    1
  2378  2137  2060    1
  2379  3070  3065    1
  2380  1117  1168    1
  2381  4033  3956    1
  2382  3084  3003    1
  2383   607   601    1
  2384  1663  1586    1
  2385  2503  2497    1
  2386   643   694    1
  2387  3559  3482    1
  2388  1078  1089    1
  2389  1078  1073    1
  2390   133   127    1
  2391  2539  2590    1
  2392  2029  2023    1
  2393   169   220    1
  2394  3085  3008    1
  2395   604   615    1
  2396   604   599    1
  2397  1119  1171    1
  2398  3925  3919    1
  2399  2065  2116    1
  2400  2500  2511    1
  2401  2500  2495    1
  2402  1115  1166    1
  2403  1555  1549    1
  2404   130   141    1
  2405   130   125    1
  2406  3961  4012    1
  2407   645   697    1
  2408  3451  3445    1
  2409  1591  1642    1
  2410  2026  2037    1
  2411  2026  2021    1
  2412  2541  2593    1
  2413   641   692    1
  2414  3487  3538    1
  2415  3922  3933    1
  2416  3922  3917    1
  2417   171   223    1
  2418  2537  2588    1
  2419  2977  2971    1
  2420  1552  1563    1
  2421  1552  1547    1
  2422  2067  2119    1
  2423   167   218    1
  2424  3013  3064    1
  2425  3448  3459    1
  2426  3448  3443    1
  2427  3963  4015    1
  2428  2063  2114    1
  2429  1593  1645    1
  2430  3959  4010    1
  2431  2974  2985    1
  2432  2974  2969    1
  2433  3489  3541    1
  2434  1589  1640    1
  2435  1107  1198    1
  2436  1107  1200    1
  2437  3485  3536    1
  2438  3015  3067    1
  2439   633   724    1
  2440   633   726    1
  2441  3011  3062    1
  2442  2529  2620    1
  2443  2529  2622    1
  2444   159   250    1
  2445   159   252    1
  2446  1112  1195    1
  2447  1112  1193    1
  2448  1112  1361    1
  2449  2055  2146    1
  2450  2055  2148    1
  2451  1101  1093    1
  2452  3951  4042    1
  2453  3951  4044    1
  2454   638   721    1
  2455   638   719    1
  2456   638   887    1
  2457  1581  1672    1
  2458  1581  1674    1
  2459   627   619    1
  2460  2534  2617    1
  2461  2534  2615    1
  2462  2534  2783    1
  2463  3477  3568    1
  2464  3477  3570    1
  2465  2523  2515    1
  2466   164   247    1
  2467   164   245    1
  2468   164   413    1
  2469   153   145    1
  2470  2060  2143    1
  2471  2060  2141    1
  2472  2060  2309    1
  2473  3003  3094    1
  2474  3003  3096    1
  2475  1098  1106    2
  2476  2049  2041    1
  2477  3956  4039    1
  2478  3956  4037    1
  2479  3956  4205    1
  2480  3945  3937    1
  2481  1586  1669    1
  2482  1586  1667    1
  2483  1586  1835    1
  2484   624   632    2
  2485  1575  1567    1
  2486  3482  3565    1
  2487  3482  3563    1
  2488  3482  3731    1
  2489  2520  2528    2
  2490  3471  3463    1
  2491   150   158    2
  2492  3008  3091    1
  2493  3008  3089    1
  2494  3008  3257    1
  2495  2046  2054    2
  2496  2997  2989    1
  2497  3942  3950    2
  2498  1572  1580    2
  2499  1168  1316    1
  2500  3468  3476    2
  2501  1169  2590   ar
  2502  1169  1315   ar
  2503  1075  1073    1
  2504  1075  1076    2
  2505   694   842    1
  2506  2994  3002    2
  2507   695  2116   ar
  2508   695   841   ar
  2509   601   599    1
  2510   601   602    2
  2511  2590  2738   ar
  2512  2591  4012   ar
  2513  2591  2737   ar
  2514   220   368    1
  2515  2497  2495    1
  2516  2497  2498    2
  2517   221  1642   ar
  2518   221   367   ar
  2519  1198  1322    1
  2520   127   125    1
  2521   127   128    2
  2522  2116  2264   ar
  2523  2117  3538   ar
  2524  2117  2263   ar
  2525  1166  1314    1
  2526  1171   692   ar
  2527  1171  1313   ar
  2528  2023  2021    1
  2529  2023  2024    2
  2530  4012  4160   ar
  2531   724   848    1
  2532  4013  4159    1
  2533  1642  1790   ar
  2534  1195  1321    1
  2535  1193  1319    1
  2536  3919  3917    1
  2537  3919  3920    2
  2538  1073  1079    1
  2539  1200  1320    1
  2540  1643  3064   ar
  2541  1643  1789   ar
  2542   692   840   ar
  2543   697   218   ar
  2544   697   839   ar
  2545  2620  2744    1
  2546  1549  1547    1
  2547  1549  1550    2
  2548  3538  3686   ar
  2549   250   374    1
  2550  3539  3685    1
  2551  2588  2736    1
  2552  2593  2114   ar
  2553  2593  2735   ar
  2554   721   847    1
  2555   719   845    1
  2556  3445  3443    1
  2557  3445  3446    2
  2558   599   605    1
  2559   726   846    1
  2560   218   366   ar
  2561   223   365    1
  2562  2146  2270    1
  2563  3064  3212   ar
  2564  2617  2743    1
  2565  2615  2741    1
  2566  2495  2501    1
  2567  2622  2742    1
  2568  3065  3211    1
  2569  2114  2262   ar
  2570  2119  1640   ar
  2571  2119  2261   ar
  2572  4042  4166    1
  2573   247   373    1
  2574   245   371    1
  2575  2971  2969    1
  2576  2971  2972    2
  2577   125   131    1
  2578   252   372    1
  2579  1102  1093    1
  2580  1672  1796    1
  2581  4010  4158    1
  2582  4015  3536   ar
  2583  4015  4157   ar
  2584  2143  2269    1
  2585  2141  2267    1
  2586  2021  2027    1
  2587  2148  2268    1
  2588  1640  1788   ar
  2589  1645  1787    1
  2590  3568  3692    1
  2591  4039  4165    1
  2592   628   619    1
  2593  4037  4163    1
  2594  3917  3923    1
  2595  4044  4164    1
  2596  3536  3684   ar
  2597  3541  3062   ar
  2598  3541  3683   ar
  2599  1669  1795    1
  2600  1667  1793    1
  2601  1547  1553    1
  2602  1674  1794    1
  2603  2524  2515    1
  2604  3094  3218    1
  2605  3565  3691    1
  2606   154   145    1
  2607  3563  3689    1
  2608  3443  3449    1
  2609  3570  3690    1
  2610  3062  3210   ar
  2611  3067  3209    1
  2612  2050  2041    1
  2613  3091  3217    1
  2614  3089  3215    1
  2615  2969  2975    1
  2616  3096  3216    1
  2617  3946  3937    1
  2618  1576  1567    1
  2619  3472  3463    1
  2620  2998  2989    1
  2621  1093  1099    1
  2622  1093  1105    1
  2623   619   625    1
  2624   619   631    1
  2625  2515  2521    1
  2626  2515  2527    1
  2627   145   151    1
  2628   145   157    1
  2629  2041  2047    1
  2630  2041  2053    1
  2631  3937  3943    1
  2632  3937  3949    1
  2633  1567  1573    1
  2634  1567  1579    1
  2635  3463  3469    1
  2636  3463  3475    1
  2637  2989  2995    1
  2638  2989  3001    1
  2639  1279  1362    1
  2640  1106  1097    2
  2641  1106  1094    1
  2642  1106  1092    1
  2643  1316  1322    2
  2644  1316  1328    1
  2645  1315  1321    1
  2646  1315  1325   ar
  2647   805   888    1
  2648  1096  1105    2
  2649  1362  1269    1
  2650  1322  1354    1
  2651   632   623    2
  2652   632   620    1
  2653   632   618    1
  2654  1076  1082    1
  2655  1076  1074    1
  2656  2701  2784    1
  2657   842   848    2
  2658   842   854    1
  2659  2528  2519    2
  2660  2528  2516    1
  2661  2528  2514    1
  2662  1321  1355    1
  2663   841   847    1
  2664   841   851   ar
  2665   331   414    1
  2666   622   631    2
  2667   888   795    1
  2668   848   880    1
  2669   158   149    2
  2670   158   146    1
  2671   158   144    1
  2672  2738  2744    1
  2673  2738  2750   ar
  2674   602   608    1
  2675   602   600    1
  2676  2737  2743    1
  2677  2737  2747   ar
  2678  2227  2310    1
  2679  2518  2527    2
  2680  2784  2691    1
  2681   368   374    2
  2682   368   380    1
  2683  2744  2776    1
  2684  2054  2045    2
  2685  2054  2042    1
  2686  2054  2040    1
  2687  1319  1313    1
  2688  1319  1357    1
  2689   847   881    1
  2690   367   373    1
  2691   367   377   ar
  2692  1320  1314    2
  2693  1320  1352    1
  2694   148   157    2
  2695   414   321    1
  2696   374   406    1
  2697  2498  2504    1
  2698  2498  2496    1
  2699  4123  4206    1
  2700  1313  1323   ar
  2701  2264  2270    1
  2702  2264  2276   ar
  2703  3950  3941    2
  2704  3950  3938    1
  2705  3950  3936    1
  2706  2743  2777    1
  2707   128   134    1
  2708   128   126    1
  2709  2263  2269    1
  2710  2263  2273   ar
  2711  1753  1836    1
  2712  1100  1094    1
  2713  2044  2053    2
  2714  2310  2217    1
  2715  1314  1330    1
  2716  2270  2302    1
  2717  1580  1571    2
  2718  1580  1568    1
  2719  1580  1566    1
  2720   845   839    1
  2721   845   883    1
  2722  4160  4166    1
  2723  4160  4172   ar
  2724   373   407    1
  2725   846   840    1
  2726   846   878    1
  2727  1361  1280    1
  2728  2024  2030    1
  2729  2024  2022    1
  2730  4159  4165    2
  2731  4159  4169    1
  2732  3649  3732    1
  2733  3940  3949    2
  2734   839   849   ar
  2735  4206  4113    1
  2736  1790  1796    1
  2737  1790  1802   ar
  2738  4166  4198    1
  2739  3476  3467    2
  2740  3476  3464    1
  2741  3476  3462    1
  2742  2741  2735    1
  2743  2741  2779    1
  2744  2269  2303    1
  2745  1789  1795    1
  2746  1789  1799   ar
  2747  2742  2736    2
  2748  2742  2774    1
  2749   626   620    1
  2750  1570  1579    2
  2751  1836  1743    1
  2752   840   856   ar
  2753  1796  1828    1
  2754  3920  3926    1
  2755  3920  3918    1
  2756  2735  2745   ar
  2757   371   365    2
  2758   371   409    1
  2759  3686  3692    1
  2760  3686  3698   ar
  2761  4165  4199    1
  2762   372   366    1
  2763   372   404    1
  2764   887   806    1
  2765  1550  1556    1
  2766  1550  1548    1
  2767  3685  3691    2
  2768  3685  3695    1
  2769  3175  3258    1
  2770  2522  2516    1
  2771  3466  3475    2
  2772   365   375    1
  2773  3732  3639    1
  2774  2736  2752    1
  2775  3692  3724    1
  2776  3002  2993    2
  2777  3002  2990    1
  2778  3002  2988    1
  2779  2267  2261    1
  2780  2267  2305    1
  2781  1795  1829    1
  2782  2268  2262    1
  2783  2268  2300    1
  2784  2783  2702    1
  2785   152   146    1
  2786   366   382   ar
  2787  3446  3452    1
  2788  3446  3444    1
  2789  2261  2271   ar
  2790  3212  3218    1
  2791  3212  3224   ar
  2792  4163  4157    1
  2793  4163  4201    1
  2794  3691  3725    1
  2795   413   332    1
  2796  1079  1090    1
  2797  1079  1074    1
  2798  3211  3217    2
  2799  3211  3221    1
  2800  4164  4158    2
  2801  4164  4196    1
  2802  2048  2042    1
  2803  2992  3001    2
  2804  3258  3165    1
  2805  2262  2278   ar
  2806  3218  3250    1
  2807  4157  4167   ar
  2808  1793  1787    2
  2809  1793  1831    1
  2810  1794  1788    1
  2811  1794  1826    1
  2812  2309  2228    1
  2813  1104  1094    1
  2814  2972  2978    1
  2815  2972  2970    1
  2816  3944  3938    1
  2817  1787  1797    1
  2818  4158  4174    1
  2819  3689  3683    1
  2820  3689  3727    1
  2821  3217  3251    1
  2822   605   616    1
  2823   605   600    1
  2824  3690  3684    1
  2825  3690  3722    1
  2826  4205  4124    1
  2827  1574  1568    1
  2828  1788  1804   ar
  2829  3683  3693   ar
  2830  1835  1754    1
  2831  2501  2512    1
  2832  2501  2496    1
  2833   630   620    1
  2834  3470  3464    1
  2835  3684  3700   ar
  2836  3215  3209    2
  2837  3215  3253    1
  2838   131   142    1
  2839   131   126    1
  2840  3216  3210    1
  2841  3216  3248    1
  2842  3731  3650    1
  2843  2526  2516    1
  2844  3209  3219    1
  2845  2027  2038    1
  2846  2027  2022    1
  2847   156   146    1
  2848  2996  2990    1
  2849  3210  3226   ar
  2850  3257  3176    1
  2851  3923  3934    1
  2852  3923  3918    1
  2853  2052  2042    1
  2854  1553  1564    1
  2855  1553  1548    1
  2856  3948  3938    1
  2857  3449  3460    1
  2858  3449  3444    1
  2859  1578  1568    1
  2860  3474  3464    1
  2861  2975  2986    1
  2862  2975  2970    1
  2863  3000  2990    1
  2864  1094  1103    1
  2865  1105  1092    1
  2866  1105  1095    2
  2867   620   629    1
  2868   631   618    1
  2869   631   621    2
  2870  2516  2525    1
  2871   146   155    1
  2872  2527  2514    1
  2873  2527  2517    2
  2874   157   144    1
  2875   157   147    2
  2876  2042  2051    1
  2877  2053  2040    1
  2878  2053  2043    2
  2879  3938  3947    1
  2880  1568  1577    1
  2881  3949  3936    1
  2882  3949  3939    2
  2883  1579  1566    1
  2884  1579  1569    2
  2885  3464  3473    1
  2886  3475  3462    1
  2887  3475  3465    2
  2888  1074  1080    1
  2889  2990  2999    1
  2890  3001  2988    1
  2891  3001  2991    2
  2892   600   606    1
  2893  2496  2502    1
  2894   126   132    1
  2895  2022  2028    1
  2896  3918  3924    1
  2897  1354  1269    1
  2898  1548  1554    1
  2899  3444  3450    1
  2900  1328  1278    1
  2901  1355  1266    1
  2902   880   795    1
  2903  1352  1269    1
  2904  1357  1266    1
  2905  1325  2750   ar
  2906  1325  1276    1
  2907  2776  2691    1
  2908  2970  2976    1
  2909   854   804    1
  2910   881   792    1
  2911   406   321    1
  2912   878   795    1
  2913   883   792    1
  2914  2750  2700    1
  2915  2777  2688    1
  2916   851  2276   ar
  2917   851   802    1
  2918  2302  2217    1
  2919  2774  2691    1
  2920   380   330    1
  2921   407   318    1
  2922  2779  2688    1
  2923   404   321    1
  2924  2747  4172   ar
  2925  2747  2698    1
  2926  4198  4113    1
  2927   409   318    1
  2928  2276  2226    1
  2929  2303  2214    1
  2930   377  1802   ar
  2931   377   328    1
  2932  1828  1743    1
  2933  2300  2217    1
  2934  1323   856   ar
  2935  1323  1274    1
  2936  2305  2214    1
  2937  4172  4122    1
  2938  4199  4110    1
  2939  2273  3698   ar
  2940  2273  2224    1
  2941  1330  1331    1
  2942  3724  3639    1
  2943  4196  4113    1
  2944  1802  1752    1
  2945  1829  1740    1
  2946  4201  4110    1
  2947  1826  1743    1
  2948   849   382   ar
  2949   849   800    1
  2950  4169  4120    1
  2951  1831  1740    1
  2952  3698  3648    1
  2953  3725  3636    1
  2954  1799  3224   ar
  2955  1799  1750    1
  2956   856   857    1
  2957  3250  3165    1
  2958  3722  3639    1
  2959  2745  2278   ar
  2960  2745  2696    1
  2961  3727  3636    1
  2962   375   326    1
  2963  3695  3646    1
  2964  2752  2753    1
  2965  3224  3174    1
  2966  3251  3162    1
  2967   382   383    1
  2968  3248  3165    1
  2969  2271  1804   ar
  2970  2271  2222    1
  2971  3253  3162    1
  2972  3221  3172    1
  2973  2278  2279    1
  2974  4167  3700   ar
  2975  4167  4118    1
  2976  1797  1748    1
  2977  4174  4175    1
  2978  1804  1805    1
  2979  3693  3226   ar
  2980  3693  3644    1
  2981  3700  3701    1
  2982  3219  3170    1
  2983  3226  3227    1
  2984  1269  1350    1
  2985  1269  1348    1
  2986  1269  1338    1
  2987   795   876    1
  2988   795   874    1
  2989   795   864    1
  2990  2691  2772    1
  2991  2691  2770    1
  2992  2691  2760    1
  2993   321   402    1
  2994   321   400    1
  2995   321   390    1
  2996  1266  1343    1
  2997  1266  1345    1
  2998  1266  1341    1
  2999  2217  2298    1
  3000  2217  2296    1
  3001  2217  2286    1
  3002  4113  4194    1
  3003  4113  4192    1
  3004  4113  4182    1
  3005   792   869    1
  3006   792   871    1
  3007   792   867    1
  3008  1743  1824    1
  3009  1743  1822    1
  3010  1743  1812    1
  3011  2688  2765    1
  3012  2688  2767    1
  3013  2688  2763    1
  3014  3639  3720    1
  3015  3639  3718    1
  3016  3639  3708    1
  3017   318   395    1
  3018   318   397    1
  3019   318   393    1
  3020  2214  2291    1
  3021  2214  2293    1
  3022  2214  2289    1
  3023  3165  3246    1
  3024  3165  3244    1
  3025  3165  3234    1
  3026  4110  4187    1
  3027  4110  4189    1
  3028  4110  4185    1
  3029  1740  1817    1
  3030  1740  1819    1
  3031  1740  1815    1
  3032  3636  3713    1
  3033  3636  3715    1
  3034  3636  3711    1
  3035  3162  3239    1
  3036  3162  3241    1
  3037  3162  3237    1
  3038  1083  1077    1
  3039  1289  1359    1
  3040   609   603    1
  3041  1080  1088    1
  3042  1080  1077    1
  3043  1080  1091    1
  3044  2505  2499    1
  3045   815   885    1
  3046   135   129    1
  3047  1350  1268    1
  3048   606   614    1
  3049   606   603    1
  3050   606   617    1
  3051  2711  2781    1
  3052  2031  2025    1
  3053   341   411    1
  3054  2502  2510    1
  3055  2502  2499    1
  3056  2502  2513    1
  3057   876   794    1
  3058  3927  3921    1
  3059   132   140    1
  3060   132   129    1
  3061   132   143    1
  3062  2237  2307    1
  3063  1557  1551    1
  3064  2772  2690    1
  3065  2028  2036    1
  3066  2028  2025    1
  3067  2028  2039    1
  3068  4133  4203    1
  3069   402   320    1
  3070  3453  3447    1
  3071  1763  1833    1
  3072  3924  3932    1
  3073  3924  3921    1
  3074  3924  3935    1
  3075  1085  1077    1
  3076  1343  1272    1
  3077  2298  2216    1
  3078  1554  1562    1
  3079  1554  1551    1
  3080  1554  1565    1
  3081  3659  3729    1
  3082  1331  1287    1
  3083  2979  2973    1
  3084  4194  4112    1
  3085  3450  3458    1
  3086  3450  3447    1
  3087  3450  3461    1
  3088   611   603    1
  3089   869   798    1
  3090  1824  1742    1
  3091  3185  3255    1
  3092   857   813    1
  3093   857  1288    1
  3094  2507  2499    1
  3095  2765  2694    1
  3096  3720  3638    1
  3097  2976  2984    1
  3098  2976  2973    1
  3099  2976  2987    1
  3100  2753  2709    1
  3101   137   129    1
  3102   395   324    1
  3103   383   339    1
  3104   383   814    1
  3105  2033  2025    1
  3106  2291  2220    1
  3107  3246  3164    1
  3108  2279  2235    1
  3109  2279  2710    1
  3110  3929  3921    1
  3111  4187  4116    1
  3112  4175  4131    1
  3113  1559  1551    1
  3114  1817  1746    1
  3115  1805  1761    1
  3116  1805  2236    1
  3117  3455  3447    1
  3118  3713  3642    1
  3119  1077  1087    1
  3120  3701  3657    1
  3121  3701  4132    1
  3122  2981  2973    1
  3123  3239  3168    1
  3124   603   613    1
  3125  3227  3183    1
  3126  3227  3658    1
  3127  2499  2509    1
  3128   129   139    1
  3129  1348  1268    1
  3130  2025  2035    1
  3131  3921  3931    1
  3132   874   794    1
  3133  1551  1561    1
  3134  1345  1272    1
  3135  2770  2690    1
  3136  3447  3457    1
  3137   400   320    1
  3138  1359  1272    1
  3139   871   798    1
  3140  2296  2216    1
  3141  2973  2983    1
  3142  2767  2694    1
  3143   885   798    1
  3144  4192  4112    1
  3145   397   324    1
  3146  1822  1742    1
  3147  2781  2694    1
  3148  2293  2220    1
  3149   411   324    1
  3150  3718  3638    1
  3151  4189  4116    1
  3152  2307  2220    1
  3153  1819  1746    1
  3154  3244  3164    1
  3155  4203  4116    1
  3156  3715  3642    1
  3157  1833  1746    1
  3158  3729  3642    1
  3159  3241  3168    1
  3160  3255  3168    1
  3161  1338  1300    1
  3162   864   826    1
  3163  2760  2722    1
  3164   390   352    1
  3165  1341  1297    1
  3166  2286  2248    1
  3167   867   823    1
  3168  4182  4144    1
  3169  1812  1774    1
  3170  2763  2719    1
  3171   393   349    1
  3172  3708  3670    1
  3173  1268  1339    1
  3174  1268  1388    1
  3175  2289  2245    1
  3176  3234  3196    1
  3177   794   865    1
  3178   794   914    1
  3179  4185  4141    1
  3180  1272  1335    1
  3181  1272  1385    1
  3182  1815  1771    1
  3183  2690  2761    1
  3184  2690  2810    1
  3185   320   391    1
  3186   320   440    1
  3187  3711  3667    1
  3188   798   861    1
  3189   798   911    1
  3190  2216  2287    1
  3191  2216  2336    1
  3192  2694  2757    1
  3193  2694  2807    1
  3194  3237  3193    1
  3195  4112  4183    1
  3196  4112  4232    1
  3197   324   387    1
  3198   324   437    1
  3199  1742  1813    1
  3200  1742  1862    1
  3201  2220  2283    1
  3202  2220  2333    1
  3203  3638  3709    1
  3204  3638  3758    1
  3205  4116  4179    1
  3206  4116  4229    1
  3207  1746  1809    1
  3208  1746  1859    1
  3209  3164  3235    1
  3210  3164  3284    1
  3211  3642  3705    1
  3212  3642  3755    1
  3213  3168  3231    1
  3214  3168  3281    1
  3215  1286  1308    1
  3216   812   834    1
  3217  1284  1311    1
  3218  2708  2730    1
  3219   338   360    1
  3220   810   837    1
  3221  2234  2256    1
  3222  2706  2733    1
  3223  4130  4152    1
  3224   336   363    1
  3225  1760  1782    1
  3226  2232  2259    1
  3227  3656  3678    1
  3228  4128  4155    1
  3229  1758  1785    1
  3230  3182  3204    1
  3231  3654  3681    1
  3232  3180  3207    1
  3233  1300  1339    1
  3234  1300  1304    1
  3235   826   865    1
  3236   826   830    1
  3237  2722  2761    1
  3238  2722  2726    1
  3239   352   391    1
  3240   352   356    1
  3241  1297  1335    1
  3242  1297  1301    1
  3243  2248  2287    1
  3244  2248  2252    1
  3245  4144  4183    1
  3246  4144  4148    1
  3247   823   861    1
  3248   823   827    1
  3249  1774  1813    1
  3250  1774  1778    1
  3251  2719  2757    1
  3252  2719  2723    1
  3253  3670  3709    1
  3254  3670  3674    1
  3255   349   387    1
  3256   349   353    1
  3257  2245  2283    1
  3258  2245  2249    1
  3259  3196  3235    1
  3260  3196  3200    1
  3261  4141  4179    1
  3262  4141  4145    2
  3263  1771  1809    1
  3264  1771  1775    1
  3265  3667  3705    1
  3266  3667  3671    2
  3267  3193  3231    1
  3268  3193  3197    2
  3269  1371  1375    1
  3270  1308  1304    1
  3271  1388  1317    1
  3272   897   901    1
  3273   834   830   ar
  3274   834  1310   ar
  3275  2793  2797    1
  3276   914   843    1
  3277   423   427    1
  3278  2730  2726    1
  3279  1311  1301   ar
  3280  1311  2728   ar
  3281  2810  2739    1
  3282   360   356   ar
  3283   360   836   ar
  3284  2319  2323    1
  3285   440   369    1
  3286  2256  2252   ar
  3287  2256  2732   ar
  3288  4215  4219    1
  3289   837   827   ar
  3290   837  2254   ar
  3291  2336  2265    1
  3292  1385  1317    1
  3293  1845  1849    1
  3294  4152  4148    1
  3295  2733  2723   ar
  3296  2733  4150   ar
  3297  4232  4161    1
  3298  1782  1778   ar
  3299  1782  2258   ar
  3300  3741  3745    1
  3301   363   353   ar
  3302   363  1780   ar
  3303  1862  1791    1
  3304   911   843    1
  3305  3678  3674   ar
  3306  3678  4154   ar
  3307  2259  2249   ar
  3308  2259  3676   ar
  3309  3758  3687    1
  3310  2807  2739    1
  3311  3267  3271    1
  3312   437   369    1
  3313  4155  4145    1
  3314  3204  3200   ar
  3315  3204  3680   ar
  3316  1785  1775   ar
  3317  1785  3202   ar
  3318  3284  3213    1
  3319  2333  2265    1
  3320  3681  3671    1
  3321  4229  4161    1
  3322  1859  1791    1
  3323  1365  1379    1
  3324  3207  3197    1
  3325  3755  3687    1
  3326   891   905    1
  3327  1375  1379    1
  3328  1375  1381    2
  3329  1304  1309    2
  3330  3281  3213    1
  3331  1317  1373    1
  3332  2787  2801    1
  3333   417   431    1
  3334  1285  1306    1
  3335   901   905   ar
  3336   901   907   ar
  3337   830   835   ar
  3338   843   899    1
  3339  2313  2327    1
  3340  2797  2801    1
  3341  2797  2803    2
  3342  2726  2731    2
  3343  2739  2795    1
  3344  4209  4223    1
  3345   811   832    1
  3346   427   431   ar
  3347   427   433   ar
  3348   356   361   ar
  3349   369   425    1
  3350  1301  1305   ar
  3351  1839  1853    1
  3352  2707  2728    1
  3353  2323  2327   ar
  3354  2323  2329   ar
  3355  2252  2257   ar
  3356  2265  2321    1
  3357  2794  1381    1
  3358  3735  3749    1
  3359   337   358    1
  3360  4219  4223    2
  3361  4219  4225    1
  3362  4148  4153    2
  3363   827   831   ar
  3364  4161  4217    1
  3365  2233  2254    1
  3366  1849  1853   ar
  3367  1849  1855   ar
  3368  1778  1783   ar
  3369  1791  1847    1
  3370  2320   907    1
  3371  2723  2727   ar
  3372  3261  3275    1
  3373  4129  4150    1
  3374  3745  3749    2
  3375  3745  3751    1
  3376  3674  3679   ar
  3377   353   357   ar
  3378  3687  3743    1
  3379  4216  2803    1
  3380  1759  1780    1
  3381  1281  1310    1
  3382  1846   433    1
  3383  2249  2253   ar
  3384   905  2804   ar
  3385  3655  3676    1
  3386  3271  3275    2
  3387  3271  3277    1
  3388  3200  3205   ar
  3389  3213  3269    1
  3390  3742  2329    1
  3391  4145  4149    1
  3392   807   836    1
  3393  1775  1779   ar
  3394   431  2330   ar
  3395  3181  3202    1
  3396  2703  2732    1
  3397  3268  1855    1
  3398  3671  3675    1
  3399   333   362    1
  3400  2327  4226   ar
  3401  2229  2258    1
  3402   907  2802   ar
  3403  3197  3201    1
  3404  1306  1302    1
  3405  1853  3752   ar
  3406  4125  4154    1
  3407  1755  1784    1
  3408   433  2328   ar
  3409   832   828    1
  3410  3651  3680    1
  3411  2329  4224   ar
  3412  2728  2724   ar
  3413   358   354    1
  3414  3177  3206    1
  3415  1855  3750   ar
  3416  1310  1303   ar
  3417  2254  2250   ar
  3418  1370  1377    1
  3419  4150  4146   ar
  3420   836   829   ar
  3421  1780  1776   ar
  3422   896   903    1
  3423  2732  2725   ar
  3424  3676  3672   ar
  3425   362   355    1
  3426  2792  2799    1
  3427   422   429    1
  3428  2258  2251   ar
  3429  3202  3198   ar
  3430  2318  2325    1
  3431  4154  4147   ar
  3432  1784  1777    1
  3433  4214  4221    1
  3434  1844  1851    1
  3435  3680  3673   ar
  3436  1382  1368    1
  3437  1382  1376    1
  3438  3740  3747    1
  3439  3206  3199    1
  3440   908   894    1
  3441   908   902    1
  3442  3266  3273    1
  3443  1373  1377   ar
  3444  1373  1383   ar
  3445  2804  2790    1
  3446  2804  2798   ar
  3447   434   420    1
  3448   434   428    1
  3449  1380  1376    1
  3450  1380  1364    1
  3451   899   903   ar
  3452   899   909   ar
  3453  2330  2316    1
  3454  2330  2324   ar
  3455  2795  2799   ar
  3456  2795  2805   ar
  3457  4226  4212    1
  3458  4226  4220   ar
  3459   906   902    1
  3460   906   890    1
  3461   425   429   ar
  3462   425   435   ar
  3463  1856  1842    1
  3464  1856  1850    1
  3465  2802  2798   ar
  3466  2802  2786    1
  3467  2321  2325   ar
  3468  2321  2331   ar
  3469  3752  3738    1
  3470  3752  3746   ar
  3471   432   428    1
  3472   432   416    1
  3473  4217  4221   ar
  3474  4217  4227   ar
  3475  1377  1384   ar
  3476  2328  2324   ar
  3477  2328  2312    1
  3478  1847  1851   ar
  3479  1847  1857   ar
  3480  3278  3264    1
  3481  3278  3272    1
  3482  4224  4220   ar
  3483  4224  4208    1
  3484  3743  3747   ar
  3485  3743  3753   ar
  3486   903   910   ar
  3487  1854  1850    1
  3488  1854  1838    1
  3489  2799  2806   ar
  3490  3750  3746   ar
  3491  3750  3734    1
  3492  3269  3273   ar
  3493  3269  3279   ar
  3494   429   436   ar
  3495  1376  1318    2
  3496  2325  2332   ar
  3497  3276  3272    1
  3498  3276  3260    1
  3499   902   844    2
  3500  4221  4228   ar
  3501  1851  1858   ar
  3502  2798  2740    1
  3503   428   370    2
  3504  3747  3754   ar
  3505  1366  1383    1
  3506  2324  2266    1
  3507  3273  3280   ar
  3508  1309  1282    1
  3509  4220  4162    1
  3510   892   909    1
  3511  1850  1792    2
  3512  2788  2805    1
  3513   835   808    1
  3514   835  1307   ar
  3515  3746  3688    1
  3516   418   435    1
  3517  1294  1333    1
  3518  2731  2704    1
  3519  2314  2331    1
  3520   361   334    1
  3521   361   833   ar
  3522  3272  3214    2
  3523  1383  1378   ar
  3524  4210  4227    1
  3525   820   859    1
  3526  2257  2230    1
  3527  2257  2729   ar
  3528  1840  1857    1
  3529   909   904   ar
  3530  2716  2755    1
  3531  4153  4126    1
  3532  1305  1333    1
  3533  1305  2734   ar
  3534  3736  3753    1
  3535   346   385    1
  3536  1783  1756    1
  3537  1783  2255   ar
  3538  2805  2800   ar
  3539   435   430   ar
  3540  2242  2281    1
  3541  3679  3652    1
  3542  3679  4151   ar
  3543   831   859    1
  3544   831  2260   ar
  3545  3262  3279    1
  3546  2331  2326   ar
  3547  4138  4177    1
  3548  2727  2755    1
  3549  2727  4156   ar
  3550  1768  1807    1
  3551  3205  3178    1
  3552  3205  3677   ar
  3553   357   385    1
  3554   357  1786   ar
  3555  4227  4222   ar
  3556  1857  1852   ar
  3557  3664  3703    1
  3558  2253  2281    1
  3559  2253  3682   ar
  3560  3753  3748   ar
  3561  4149  4177    1
  3562  3190  3229    1
  3563  1779  1807    1
  3564  1779  3208   ar
  3565  3279  3274   ar
  3566  3675  3703    1
  3567  1302  1312    2
  3568  1302  1298    1
  3569  1384  1367    1
  3570  1384  1374   ar
  3571  3201  3229    1
  3572   828   838    2
  3573   828   824    1
  3574   910   893    1
  3575   910   900   ar
  3576  2724  2734   ar
  3577  2724  2720    1
  3578  2806  2789    1
  3579  2806  2796   ar
  3580   354   364    2
  3581   354   350    1
  3582  1318  1386    1
  3583  1318  1387    1
  3584   436   419    1
  3585   436   426   ar
  3586  1303  1307   ar
  3587  1303  1299    1
  3588  2250  2260   ar
  3589  2250  2246    1
  3590  2332  2315    1
  3591  2332  2322   ar
  3592   844   912    1
  3593   844   913    1
  3594  4146  4156   ar
  3595  4146  4142    1
  3596   829   833   ar
  3597   829   825    1
  3598  4228  4211    1
  3599  4228  4218   ar
  3600  1776  1786   ar
  3601  1776  1772    1
  3602  2740  2808    1
  3603  2740  2809    1
  3604  1858  1841    1
  3605  1858  1848   ar
  3606  2725  2729   ar
  3607  2725  2721    1
  3608   370   438    1
  3609   370   439    1
  3610  3672  3682   ar
  3611  3672  3668    1
  3612   355   359    2
  3613   355   351    1
  3614  3754  3737    1
  3615  3754  3744   ar
  3616  1333  1293    1
  3617  2266  2334    1
  3618  2266  2335    1
  3619  2251  2255   ar
  3620  2251  2247    1
  3621  3198  3208   ar
  3622  3198  3194    1
  3623  4162  4230    1
  3624  4162  4231    1
  3625  3280  3263    1
  3626  3280  3270   ar
  3627  4147  4151   ar
  3628  4147  4143    1
  3629   859   819    1
  3630  1792  1860    1
  3631  1792  1861    1
  3632  1777  1781    2
  3633  1777  1773    1
  3634  2755  2715    1
  3635  3688  3756    1
  3636  3688  3757    1
  3637  3673  3677   ar
  3638  3673  3669    1
  3639   385   345    1
  3640  2281  2241    1
  3641  3214  3282    1
  3642  3214  3283    1
  3643  1386  1271    1
  3644  3199  3203    2
  3645  3199  3195    1
  3646  1378  1374   ar
  3647  1378  1363    1
  3648  4177  4137    1
  3649  1807  1767    1
  3650   912   797    1
  3651  1387  1267    1
  3652   904   900   ar
  3653   904   889    1
  3654  3703  3663    1
  3655  1312  1283    1
  3656  2808  2693    1
  3657  2800  2796   ar
  3658  2800  2785    1
  3659   438   323    1
  3660   913   793    1
  3661   430   426   ar
  3662   430   415    1
  3663  3229  3189    1
  3664   838   809    1
  3665  2334  2219    1
  3666  2809  2689    1
  3667  1336  1298    1
  3668  1336  1271    1
  3669  2326  2322   ar
  3670  2326  2311    1
  3671  1307  1334    1
  3672  2734  2705    1
  3673   439   319    1
  3674  4230  4115    1
  3675  1374  1369    1
  3676   364   335    1
  3677  4222  4218   ar
  3678  4222  4207    1
  3679  1860  1745    1
  3680  2335  2215    1
  3681   862   824    1
  3682   862   797    1
  3683  1852  1848   ar
  3684  1852  1837    1
  3685   833   860    1
  3686  2260  2231    1
  3687  3756  3641    1
  3688  4231  4111    1
  3689   900   895    1
  3690  2758  2720    1
  3691  2758  2693    1
  3692  3748  3744   ar
  3693  3748  3733    1
  3694  1340  1299    1
  3695  1340  1267    1
  3696  2729  2756    1
  3697  4156  4127    1
  3698  1861  1741    1
  3699  2796  2791    1
  3700   388   350    1
  3701   388   323    1
  3702   359   386    1
  3703  1786  1757    1
  3704  3282  3167    1
  3705  3757  3637    1
  3706   426   421    1
  3707  2284  2246    1
  3708  2284  2219    1
  3709  3274  3270   ar
  3710  3274  3259    1
  3711   866   825    1
  3712   866   793    1
  3713  2255  2282    1
  3714  3682  3653    1
  3715  2322  2317    1
  3716  4180  4142    1
  3717  4180  4115    1
  3718  2762  2721    1
  3719  2762  2689    1
  3720  4151  4178    1
  3721  3283  3163    1
  3722  4218  4213    1
  3723  1810  1772    1
  3724  1810  1745    1
  3725   392   351    1
  3726   392   319    1
  3727  1781  1808    1
  3728  3208  3179    1
  3729  1848  1843    1
  3730  3706  3668    1
  3731  3706  3641    1
  3732  2288  2247    1
  3733  2288  2215    1
  3734  3677  3704    1
  3735  3744  3739    1
  3736  4184  4143    1
  3737  4184  4111    1
  3738  3232  3194    1
  3739  3232  3167    1
  3740  1814  1773    1
  3741  1814  1741    1
  3742  3203  3230    1
  3743  3270  3265    1
  3744  3710  3669    1
  3745  3710  3637    1
  3746  3236  3195    1
  3747  3236  3163    1
  3748  1298  1342    1
  3749   824   868    1
  3750  2720  2764    1
  3751  1299  1337    1
  3752   350   394    1
  3753  2246  2290    1
  3754   825   863    1
  3755  4142  4186    1
  3756  2721  2759    1
  3757  1772  1816    1
  3758   351   389    1
  3759  3668  3712    1
  3760  2247  2285    1
  3761  4143  4181    1
  3762  3194  3238    1
  3763  1773  1811    1
  3764  3669  3707    1
  3765  3195  3233    1
  3766  1334  1295    1
  3767  1334  1296    1
  3768  1271  1360    1
  3769  1271  1344    1
  3770  1271  1346    1
  3771   860   821    1
  3772   860   822    1
  3773   797   886    1
  3774   797   870    1
  3775   797   872    1
  3776  2756  2717    1
  3777  2756  2718    1
  3778  1267  1349    1
  3779  1267  1347    1
  3780   386   347    1
  3781   386   348    1
  3782  2693  2782    1
  3783  2693  2766    1
  3784  2693  2768    1
  3785   323   412    1
  3786   323   396    1
  3787   323   398    1
  3788  2282  2243    1
  3789  2282  2244    1
  3790   793   875    1
  3791   793   873    1
  3792  2219  2308    1
  3793  2219  2292    1
  3794  2219  2294    1
  3795  4178  4139    1
  3796  4178  4140    1
  3797  2689  2771    1
  3798  2689  2769    1
  3799  1808  1769    1
  3800  1808  1770    1
  3801  4115  4204    1
  3802  4115  4188    1
  3803  4115  4190    1
  3804   319   401    1
  3805   319   399    1
  3806  1745  1834    1
  3807  1745  1818    1
  3808  1745  1820    1
  3809  3704  3665    1
  3810  3704  3666    1
  3811  2215  2297    1
  3812  2215  2295    1
  3813  3641  3730    1
  3814  3641  3714    1
  3815  3641  3716    1
  3816  1342  1265    1
  3817  4111  4193    1
  3818  4111  4191    1
  3819  3230  3191    1
  3820  3230  3192    1
  3821  1741  1823    1
  3822  1741  1821    1
  3823  3167  3256    1
  3824  3167  3240    1
  3825  3167  3242    1
  3826   868   791    1
  3827  3637  3719    1
  3828  3637  3717    1
  3829  2764  2687    1
  3830   394   317    1
  3831  3163  3245    1
  3832  3163  3243    1
  3833  1337  1270    1
  3834  2290  2213    1
  3835  1291  1332    1
  3836  4186  4109    1
  3837   863   796    1
  3838  1816  1739    1
  3839  2759  2692    1
  3840   817   858    1
  3841  3712  3635    1
  3842   389   322    1
  3843  2713  2754    1
  3844  2285  2218    1
  3845   343   384    1
  3846  3238  3161    1
  3847  4181  4114    1
  3848  2239  2280    1
  3849  1811  1744    1
  3850  4135  4176    1
  3851  3707  3640    1
  3852  1765  1806    1
  3853  3661  3702    1
  3854  3233  3166    1
  3855  1360  1290    1
  3856  3187  3228    1
  3857   886   816    1
  3858  1344  1265    1
  3859  2782  2712    1
  3860   412   342    1
  3861   870   791    1
  3862  2308  2238    1
  3863  2766  2687    1
  3864  4204  4134    1
  3865   396   317    1
  3866  1834  1764    1
  3867  1349  1270    1
  3868  2292  2213    1
  3869  3730  3660    1
  3870  4188  4109    1
  3871   875   796    1
  3872  1242  1236    1
  3873  1818  1739    1
  3874  3256  3186    1
  3875  2771  2692    1
  3876  3714  3635    1
  3877   401   322    1
  3878  1244  1236    1
  3879   768   762    1
  3880  2297  2218    1
  3881  2664  2658    1
  3882  3240  3161    1
  3883   770   762    1
  3884  4193  4114    1
  3885   294   288    1
  3886  1823  1744    1
  3887  2666  2658    1
  3888  2190  2184    1
  3889   296   288    1
  3890  3719  3640    1
  3891  4086  4080    1
  3892  2192  2184    1
  3893  1716  1710    1
  3894  3245  3166    1
  3895  1292  1332    1
  3896  4088  4080    1
  3897  3612  3606    1
  3898  1718  1710    1
  3899  1332  1327    1
  3900   818   858    1
  3901  3614  3606    1
  3902  3138  3132    1
  3903  1346  1265    1
  3904  2714  2754    1
  3905   858   853    1
  3906   344   384    1
  3907  3140  3132    1
  3908  2754  2749    1
  3909   872   791    1
  3910  2240  2280    1
  3911   384   379    1
  3912  2768  2687    1
  3913  1347  1270    1
  3914  4136  4176    1
  3915  2280  2275    1
  3916   398   317    1
  3917  1766  1806    1
  3918  4176  4171    1
  3919  2294  2213    1
  3920   873   796    1
  3921  3662  3702    1
  3922  1806  1801    1
  3923  4190  4109    1
  3924  2769  2692    1
  3925  3702  3697    1
  3926  1820  1739    1
  3927   399   322    1
  3928  3188  3228    1
  3929  3716  3635    1
  3930  1239  1233    1
  3931  2295  2218    1
  3932  3228  3223    1
  3933  1275  1326    1
  3934  4191  4114    1
  3935  3242  3161    1
  3936   765   759    1
  3937  1821  1744    1
  3938  2661  2655    1
  3939   801   852    1
  3940  3717  3640    1
  3941  1236  1247    1
  3942  1236  1231    1
  3943   291   285    1
  3944  2697  2748    1
  3945  2187  2181    1
  3946   327   378    1
  3947  3243  3166    1
  3948   762   773    1
  3949   762   757    1
  3950  1277  1329    1
  3951  4083  4077    1
  3952  2223  2274    1
  3953  2658  2669    1
  3954  2658  2653    1
  3955  1273  1324    1
  3956  1713  1707    1
  3957   288   299    1
  3958   288   283    1
  3959  4119  4170    1
  3960   803   855    1
  3961  3609  3603    1
  3962  1749  1800    1
  3963  2184  2195    1
  3964  2184  2179    1
  3965  2699  2751    1
  3966   799   850    1
  3967  3645  3696    1
  3968  4080  4091    1
  3969  4080  4075    1
  3970   329   381    1
  3971  2695  2746    1
  3972  3135  3129    1
  3973  1710  1721    1
  3974  1710  1705    1
  3975  2225  2277    1
  3976   325   376    1
  3977  3171  3222    1
  3978  3606  3617    1
  3979  3606  3601    1
  3980  4121  4173    1
  3981  2221  2272    1
  3982  1751  1803    1
  3983  4117  4168    1
  3984  3132  3143    1
  3985  3132  3127    1
  3986  3647  3699    1
  3987  1747  1798    1
  3988  1265  1356    1
  3989  1265  1358    1
  3990  3643  3694    1
  3991  3173  3225    1
  3992   791   882    1
  3993   791   884    1
  3994  3169  3220    1
  3995  2687  2778    1
  3996  2687  2780    1
  3997   317   408    1
  3998   317   410    1
  3999  1270  1353    1
  4000  1270  1351    1
  4001  2213  2304    1
  4002  2213  2306    1
  4003  1259  1251    1
  4004  4109  4200    1
  4005  4109  4202    1
  4006   796   879    1
  4007   796   877    1
  4008  1739  1830    1
  4009  1739  1832    1
  4010   785   777    1
  4011  2692  2775    1
  4012  2692  2773    1
  4013  3635  3726    1
  4014  3635  3728    1
  4015  2681  2673    1
  4016   322   405    1
  4017   322   403    1
  4018   311   303    1
  4019  2218  2301    1
  4020  2218  2299    1
  4021  3161  3252    1
  4022  3161  3254    1
  4023  1256  1264    2
  4024  2207  2199    1
  4025  4114  4197    1
  4026  4114  4195    1
  4027  4103  4095    1
  4028  1744  1827    1
  4029  1744  1825    1
  4030   782   790    2
  4031  1733  1725    1
  4032  3640  3723    1
  4033  3640  3721    1
  4034  2678  2686    2
  4035  3629  3621    1
  4036   308   316    2
  4037  3166  3249    1
  4038  3166  3247    1
  4039  2204  2212    2
  4040  3155  3147    1
  4041  4100  4108    2
  4042  1730  1738    2
  4043  3626  3634    2
  4044  1327  2748    2
  4045  1233  1231    1
  4046  1233  1234    2
  4047  3152  3160    2
  4048   853  2274    2
  4049   759   757    1
  4050   759   760    2
  4051  2749  4170    2
  4052  2655  2653    1
  4053  2655  2656    2
  4054   379  1800    2
  4055   285   283    1
  4056   285   286    2
  4057  2275  3696    2
  4058  1329   850    2
  4059  2181  2179    1
  4060  2181  2182    2
  4061  4077  4075    1
  4062  4077  4078    2
  4063  1231  1237    1
  4064  1801  3222    2
  4065   855   376    2
  4066  1707  1705    1
  4067  1707  1708    2
  4068  2751  2272    2
  4069  3603  3601    1
  4070  3603  3604    2
  4071   757   763    1
  4072  2653  2659    1
  4073  2277  1798    2
  4074  3129  3127    1
  4075  3129  3130    2
  4076   283   289    1
  4077  1260  1251    1
  4078  4173  3694    2
  4079  2179  2185    1
  4080   786   777    1
  4081  4075  4081    1
  4082  3699  3220    2
  4083  1705  1711    1
  4084  2682  2673    1
  4085   312   303    1
  4086  3601  3607    1
  4087  2208  2199    1
  4088  3127  3133    1
  4089  4104  4095    1
  4090  1734  1725    1
  4091  3630  3621    1
  4092  3156  3147    1
  4093  1251  1257    1
  4094  1251  1263    1
  4095   777   783    1
  4096   777   789    1
  4097  2673  2679    1
  4098  2673  2685    1
  4099   303   309    1
  4100   303   315    1
  4101  2199  2205    1
  4102  2199  2211    1
  4103  4095  4101    1
  4104  4095  4107    1
  4105  1725  1731    1
  4106  1725  1737    1
  4107  3621  3627    1
  4108  3621  3633    1
  4109  3147  3153    1
  4110  3147  3159    1
  4111  1264  1255    2
  4112  1264  1252    1
  4113  1264  1250    1
  4114  1254  1263    2
  4115   790   781    2
  4116   790   778    1
  4117   790   776    1
  4118  1234  1240    1
  4119  1234  1232    1
  4120  2686  2677    2
  4121  2686  2674    1
  4122  2686  2672    1
  4123   780   789    2
  4124   316   307    2
  4125   316   304    1
  4126   316   302    1
  4127   760   766    1
  4128   760   758    1
  4129  2676  2685    2
  4130  2212  2203    2
  4131  2212  2200    1
  4132  2212  2198    1
  4133   306   315    2
  4134  2656  2662    1
  4135  2656  2654    1
  4136  4108  4099    2
  4137  4108  4096    1
  4138  4108  4094    1
  4139   286   292    1
  4140   286   284    1
  4141  1258  1252    1
  4142  2202  2211    2
  4143  1738  1729    2
  4144  1738  1726    1
  4145  1738  1724    1
  4146  2182  2188    1
  4147  2182  2180    1
  4148  4098  4107    2
  4149  3634  3625    2
  4150  3634  3622    1
  4151  3634  3620    1
  4152   784   778    1
  4153  1728  1737    2
  4154  4078  4084    1
  4155  4078  4076    1
  4156  1708  1714    1
  4157  1708  1706    1
  4158  2680  2674    1
  4159  3624  3633    2
  4160  3160  3151    2
  4161  3160  3148    1
  4162  3160  3146    1
  4163   310   304    1
  4164  3604  3610    1
  4165  3604  3602    1
  4166  1237  1248    1
  4167  1237  1232    1
  4168  2206  2200    1
  4169  3150  3159    2
  4170  1262  1252    1
  4171  3130  3136    1
  4172  3130  3128    1
  4173  4102  4096    1
  4174   763   774    1
  4175   763   758    1
  4176  1732  1726    1
  4177  2659  2670    1
  4178  2659  2654    1
  4179   788   778    1
  4180  3628  3622    1
  4181   289   300    1
  4182   289   284    1
  4183  2684  2674    1
  4184  2185  2196    1
  4185  2185  2180    1
  4186   314   304    1
  4187  3154  3148    1
  4188  4081  4092    1
  4189  4081  4076    1
  4190  2210  2200    1
  4191  1711  1722    1
  4192  1711  1706    1
  4193  4106  4096    1
  4194  3607  3618    1
  4195  3607  3602    1
  4196  1736  1726    1
  4197  3632  3622    1
  4198  3133  3144    1
  4199  3133  3128    1
  4200  3158  3148    1
  4201  1252  1261    1
  4202  1263  1250    1
  4203  1263  1253    2
  4204   778   787    1
  4205   789   776    1
  4206   789   779    2
  4207  2674  2683    1
  4208   304   313    1
  4209  2685  2672    1
  4210  2685  2675    2
  4211   315   302    1
  4212   315   305    2
  4213  2200  2209    1
  4214  2211  2198    1
  4215  2211  2201    2
  4216  4096  4105    1
  4217  1726  1735    1
  4218  4107  4094    1
  4219  4107  4097    2
  4220  1737  1724    1
  4221  1737  1727    2
  4222  3622  3631    1
  4223  3633  3620    1
  4224  3633  3623    2
  4225  1232  1238    1
  4226  3148  3157    1
  4227  3159  3146    1
  4228  3159  3149    2
  4229   758   764    1
  4230  2654  2660    1
  4231   284   290    1
  4232  2180  2186    1
  4233  4076  4082    1
  4234  1706  1712    1
  4235  3602  3608    1
  4236  3128  3134    1
  4237  1241  1235    1
  4238   767   761    1
  4239  1238  1246    1
  4240  1238  1235    1
  4241  1238  1249    1
  4242  2663  2657    1
  4243   293   287    1
  4244   764   772    1
  4245   764   761    1
  4246   764   775    1
  4247  2189  2183    1
  4248  2660  2668    1
  4249  2660  2657    1
  4250  2660  2671    1
  4251  4085  4079    1
  4252   290   298    1
  4253   290   287    1
  4254   290   301    1
  4255  1715  1709    1
  4256  2186  2194    1
  4257  2186  2183    1
  4258  2186  2197    1
  4259  3611  3605    1
  4260  4082  4090    1
  4261  4082  4079    1
  4262  4082  4093    1
  4263  1243  1235    1
  4264  1712  1720    1
  4265  1712  1709    1
  4266  1712  1723    1
  4267  3137  3131    1
  4268  3608  3616    1
  4269  3608  3605    1
  4270  3608  3619    1
  4271   769   761    1
  4272  2665  2657    1
  4273  3134  3142    1
  4274  3134  3131    1
  4275  3134  3145    1
  4276   295   287    1
  4277  2191  2183    1
  4278  4087  4079    1
  4279  1717  1709    1
  4280  3613  3605    1
  4281  1235  1245    1
  4282  3139  3131    1
  4283   761   771    1
  4284  2657  2667    1
  4285   287   297    1
  4286  2183  2193    1
  4287  4079  4089    1
  4288  1709  1719    1
  4289  3605  3615    1
  4290  3131  3141    1
  4291  1400  1394    1
  4292  1402  1394    1
  4293   926   920    1
  4294  2822  2816    1
  4295   928   920    1
  4296   452   446    1
  4297  2824  2816    1
  4298  2348  2342    1
  4299   454   446    1
  4300  4244  4238    1
  4301  2350  2342    1
  4302  1874  1868    1
  4303  4246  4238    1
  4304  3770  3764    1
  4305  1876  1868    1
  4306  3772  3764    1
  4307  3296  3290    1
  4308  3298  3290    1
  4309  1397  1391    1
  4310   923   917    1
  4311  2819  2813    1
  4312  1394  1405    1
  4313  1394  1389    1
  4314   449   443    1
  4315  2345  2339    1
  4316   920   931    1
  4317   920   915    1
  4318  4241  4235    1
  4319  2816  2827    1
  4320  2816  2811    1
  4321  1871  1865    1
  4322   446   457    1
  4323   446   441    1
  4324  3767  3761    1
  4325  2342  2353    1
  4326  2342  2337    1
  4327  4238  4249    1
  4328  4238  4233    1
  4329  3293  3287    1
  4330  1868  1879    1
  4331  1868  1863    1
  4332  3764  3775    1
  4333  3764  3759    1
  4334  3290  3301    1
  4335  3290  3285    1
  4336  1417  1409    1
  4337   943   935    1
  4338  2839  2831    1
  4339   469   461    1
  4340  1414  1422    2
  4341  2365  2357    1
  4342  4261  4253    1
  4343   940   948    2
  4344  1891  1883    1
  4345  2836  2844    2
  4346  3787  3779    1
  4347   466   474    2
  4348  2362  2370    2
  4349  3313  3305    1
  4350  4258  4266    2
  4351  1888  1896    2
  4352  3784  3792    2
  4353  1391  1389    1
  4354  1391  1392    2
  4355  3310  3318    2
  4356   917   915    1
  4357   917   918    2
  4358  2813  2811    1
  4359  2813  2814    2
  4360   443   441    1
  4361   443   444    2
  4362  2339  2337    1
  4363  2339  2340    2
  4364  4235  4233    1
  4365  4235  4236    2
  4366  1389  1395    1
  4367  1865  1863    1
  4368  1865  1866    2
  4369  3761  3759    1
  4370  3761  3762    2
  4371   915   921    1
  4372  2811  2817    1
  4373  3287  3285    1
  4374  3287  3288    2
  4375   441   447    1
  4376  1418  1409    1
  4377  2337  2343    1
  4378   944   935    1
  4379  4233  4239    1
  4380  1863  1869    1
  4381  2840  2831    1
  4382   470   461    1
  4383  3759  3765    1
  4384  2366  2357    1
  4385  3285  3291    1
  4386  4262  4253    1
  4387  1892  1883    1
  4388  3788  3779    1
  4389  3314  3305    1
  4390  1409  1415    1
  4391  1409  1421    1
  4392   935   941    1
  4393   935   947    1
  4394  2831  2837    1
  4395  2831  2843    1
  4396   461   467    1
  4397   461   473    1
  4398  2357  2363    1
  4399  2357  2369    1
  4400  4253  4259    1
  4401  4253  4265    1
  4402  1883  1889    1
  4403  1883  1895    1
  4404  3779  3785    1
  4405  3779  3791    1
  4406  3305  3311    1
  4407  3305  3317    1
  4408  1422  1413    2
  4409  1422  1410    1
  4410  1422  1408    1
  4411  1412  1421    2
  4412   948   939    2
  4413   948   936    1
  4414   948   934    1
  4415  1392  1398    1
  4416  1392  1390    1
  4417  2844  2835    2
  4418  2844  2832    1
  4419  2844  2830    1
  4420   938   947    2
  4421   474   465    2
  4422   474   462    1
  4423   474   460    1
  4424   918   924    1
  4425   918   916    1
  4426  2834  2843    2
  4427  2370  2361    2
  4428  2370  2358    1
  4429  2370  2356    1
  4430   464   473    2
  4431  2814  2820    1
  4432  2814  2812    1
  4433  4266  4257    2
  4434  4266  4254    1
  4435  4266  4252    1
  4436   444   450    1
  4437   444   442    1
  4438  1416  1410    1
  4439  2360  2369    2
  4440  1896  1887    2
  4441  1896  1884    1
  4442  1896  1882    1
  4443  2340  2346    1
  4444  2340  2338    1
  4445  4256  4265    2
  4446  3792  3783    2
  4447  3792  3780    1
  4448  3792  3778    1
  4449   942   936    1
  4450  1886  1895    2
  4451  4236  4242    1
  4452  4236  4234    1
  4453  1866  1872    1
  4454  1866  1864    1
  4455  2838  2832    1
  4456  3782  3791    2
  4457  3318  3309    2
  4458  3318  3306    1
  4459  3318  3304    1
  4460   468   462    1
  4461  3762  3768    1
  4462  3762  3760    1
  4463  1395  1406    1
  4464  1395  1390    1
  4465  2364  2358    1
  4466  3308  3317    2
  4467  1420  1410    1
  4468  3288  3294    1
  4469  3288  3286    1
  4470  4260  4254    1
  4471   921   932    1
  4472   921   916    1
  4473  1890  1884    1
  4474  2817  2828    1
  4475  2817  2812    1
  4476   946   936    1
  4477  3786  3780    1
  4478   447   458    1
  4479   447   442    1
  4480  2842  2832    1
  4481  2343  2354    1
  4482  2343  2338    1
  4483   472   462    1
  4484  3312  3306    1
  4485  4239  4250    1
  4486  4239  4234    1
  4487  2368  2358    1
  4488  1869  1880    1
  4489  1869  1864    1
  4490  4264  4254    1
  4491  3765  3776    1
  4492  3765  3760    1
  4493  1894  1884    1
  4494  3790  3780    1
  4495  3291  3302    1
  4496  3291  3286    1
  4497  3316  3306    1
  4498  1410  1419    1
  4499  1421  1408    1
  4500  1421  1411    2
  4501   936   945    1
  4502   947   934    1
  4503   947   937    2
  4504  2832  2841    1
  4505   462   471    1
  4506  2843  2830    1
  4507  2843  2833    2
  4508   473   460    1
  4509   473   463    2
  4510  2358  2367    1
  4511  2369  2356    1
  4512  2369  2359    2
  4513  4254  4263    1
  4514  1884  1893    1
  4515  4265  4252    1
  4516  4265  4255    2
  4517  1895  1882    1
  4518  1895  1885    2
  4519  3780  3789    1
  4520  3791  3778    1
  4521  3791  3781    2
  4522  1390  1396    1
  4523  3306  3315    1
  4524  3317  3304    1
  4525  3317  3307    2
  4526   916   922    1
  4527  2812  2818    1
  4528   442   448    1
  4529  2338  2344    1
  4530  4234  4240    1
  4531  1864  1870    1
  4532  3760  3766    1
  4533  3286  3292    1
  4534  1399  1393    1
  4535   925   919    1
  4536  1396  1404    1
  4537  1396  1393    1
  4538  1396  1407    1
  4539  2821  2815    1
  4540   451   445    1
  4541   922   930    1
  4542   922   919    1
  4543   922   933    1
  4544  2347  2341    1
  4545  2818  2826    1
  4546  2818  2815    1
  4547  2818  2829    1
  4548  4243  4237    1
  4549   448   456    1
  4550   448   445    1
  4551   448   459    1
  4552  1873  1867    1
  4553  2344  2352    1
  4554  2344  2341    1
  4555  2344  2355    1
  4556  3769  3763    1
  4557  4240  4248    1
  4558  4240  4237    1
  4559  4240  4251    1
  4560  1401  1393    1
  4561  1870  1878    1
  4562  1870  1867    1
  4563  1870  1881    1
  4564  3295  3289    1
  4565  3766  3774    1
  4566  3766  3763    1
  4567  3766  3777    1
  4568   927   919    1
  4569  2823  2815    1
  4570  3292  3300    1
  4571  3292  3289    1
  4572  3292  3303    1
  4573   453   445    1
  4574  2349  2341    1
  4575  4245  4237    1
  4576  1875  1867    1
  4577  3771  3763    1
  4578  1393  1403    1
  4579  3297  3289    1
  4580   919   929    1
  4581  2815  2825    1
  4582   445   455    1
  4583  2341  2351    1
  4584  4237  4247    1
  4585  1867  1877    1
  4586  3763  3773    1
  4587  3289  3299    1
