@<TRIPOS>MOLECULE
Lattice="47.998314632938815 -1.671794829 0.268704666 -19.551087764410504 43.837528774156056 -0.16955525700000001 -13.90393925690583 -21.19930898781928 39.28382773573439" Properties=species:S:1:pos:R:3 i=448 E=-1362.5047368428 pbc="T T T"
 3861 4209 0 0 0
SMALL
GASTEIGER

@<TRIPOS>ATOM
      1 TI         -2.8554    2.2298   11.2464 Ti      1  UNL1        0.0000
      2 TI          7.9750    5.1110    1.8816 Ti      1  UNL1        0.0000
      3 TI          1.2413   -1.7064    9.4264 Ti      1  UNL1        0.0000
      4 TI          2.7524    7.4557    3.6534 Ti      1  UNL1        0.0000
      5 TI          1.7539    9.1340    1.7490 Ti      1  UNL1        0.0000
      6 TI          3.1295   -1.9608   11.3798 Ti      1  UNL1        0.0000
      7 TI         -1.9062    0.4939    9.3549 Ti      1  UNL1        0.0000
      8 TI          5.9872    5.4135    3.7291 Ti      1  UNL1        0.0000
      9 H          -2.3536    6.1268   11.0269 H       1  UNL1        0.0000
     10 H           8.7838    1.2049    2.2023 H       1  UNL1        0.0000
     11 H          -6.8153    1.4731   10.8639 H       1  UNL1        0.0000
     12 H          11.3572    7.1153    2.0822 H       1  UNL1        0.0000
     13 H           4.1051   -5.9953   10.9939 H       1  UNL1        0.0000
     14 H          -2.3047    8.5441    2.0711 H       1  UNL1        0.0000
     15 H           2.2483    7.4972   -0.1241 H       1  UNL1        0.0000
     16 H           6.0995    4.8683    0.1817 H       1  UNL1        0.0000
     17 H           3.6394   -2.6279    5.8687 H       1  UNL1        0.0000
     18 H           1.0290    9.2927    7.2723 H       1  UNL1        0.0000
     19 H          -5.9789    3.8825    8.9990 H       1  UNL1        0.0000
     20 H          10.7298    3.0267    4.1876 H       1  UNL1        0.0000
     21 H          -3.6778    2.4351    5.6652 H       1  UNL1        0.0000
     22 H          -1.3462   10.9619    4.1022 H       1  UNL1        0.0000
     23 H           2.1461   12.2368    2.6045 H       1  UNL1        0.0000
     24 H           8.6260   -0.8139    3.4048 H      54  UNL54       0.0000
     25 H           4.8451    7.1358    2.3148 H       1  UNL1        0.0000
     26 H           0.1605    0.1420   10.7200 H       1  UNL1        0.0000
     27 H           7.3642   -0.0259    9.7694 H       1  UNL1        0.0000
     28 H           5.8831   -0.4950   10.5168 H       1  UNL1        0.0000
     29 H           7.9383    4.4077    8.6705 H       1  UNL1        0.0000
     30 H           7.3686    4.7663    7.0520 H       1  UNL1        0.0000
     31 H           6.8754   -4.9808    9.5794 H       1  UNL1        0.0000
     32 H           5.5962   -3.8802   10.0368 H       1  UNL1        0.0000
     33 C           8.5531    4.3697    4.7451 C.3     1  UNL1        0.0000
     34 C          -3.8160    2.4911    8.3994 C.3     1  UNL1        0.0000
     35 C           3.8218   -2.7171    8.5017 C.3     1  UNL1        0.0000
     36 C           0.8163    9.4262    4.6127 C.3     1  UNL1        0.0000
     37 C           9.4491    3.7654    5.7403 C.ar    1  UNL1        0.0000
     38 C          -4.7479    3.1162    7.4223 C.2     1  UNL1        0.0000
     39 C           4.7619   -3.3315    7.5545 C.2     1  UNL1        0.0000
     40 C          -0.0735   10.0730    5.6125 C.ar    1  UNL1        0.0000
     41 C           9.2003    3.8403    7.1467 C.ar    1  UNL1        0.0000
     42 C          -4.5315    2.9962    6.0343 C.3     1  UNL1        0.0000
     43 C           5.8914   -4.0918    8.0076 C.2     1  UNL1        0.0000
     44 C          -1.1682   10.8460    5.1676 C.ar    1  UNL1        0.0000
     45 C           0.1810    9.9022    6.9674 C.ar    1  UNL1        0.0000
     46 C           4.5142   -3.1994    6.1706 C.3     1  UNL1        0.0000
     47 C          10.5828    3.0664    5.2646 C.ar    1  UNL1        0.0000
     48 C          -5.8481    3.8086    7.9210 C.2     1  UNL1        0.0000
     49 C           8.7648    1.2840    0.0582 C.2     1  UNL1        0.0000
     50 C           2.2951   13.0756    0.0832 C.2     1  UNL1        0.0000
     51 C          11.2493    7.0471   -0.0678 C.2     1  UNL1        0.0000
     52 C          -2.1091    8.5895   -0.0872 C.2     1  UNL1        0.0000
     53 C           3.4992    5.1125    5.6180 C.3     1  UNL1        0.0000
     54 C          -1.2569   -1.9819    7.5361 C.2     1  UNL1        0.0000
     55 C           8.6290    2.7388    0.0350 C.2     1  UNL1        0.0000
     56 C           2.2024   11.6421    0.0457 C.2     1  UNL1        0.0000
     57 C           9.9514    6.4303   -0.0210 C.2     1  UNL1        0.0000
     58 C          -0.7067    9.0039   -0.0628 C.2     1  UNL1        0.0000
     59 C           8.8042    0.6149    1.2879 C.3     1  UNL1        0.0000
     60 C          -2.3426    6.7152   11.9408 C.ar    1  UNL1        0.0000
     61 C          11.9046    7.3219    1.1661 C.2     1  UNL1        0.0000
     62 C          -7.3768    1.2938   11.7793 C.3     1  UNL1        0.0000
     63 C           7.3089    0.2494   11.7938 C.ar    1  UNL1        0.0000
     64 C          -2.8062    8.3591    1.1253 C.3     1  UNL1        0.0000
     65 C           4.1467   -6.5225   11.9429 C.3     1  UNL1        0.0000
     66 C           2.3089   13.8268    1.3125 C.2     1  UNL1        0.0000
     67 N           2.3639   13.2279    2.5506 N.pl3   1  UNL1        0.0000
     68 N           6.7299    0.0666   10.5548 N.pl3   1  UNL1        0.0000
     69 N           8.1194    4.4866    7.6780 N.pl3   1  UNL1        0.0000
     70 N           6.2224   -4.2500    9.3250 N.pl3   1  UNL1        0.0000
     71 O           7.3767    4.7748    5.1109 O.3     1  UNL1        0.0000
     72 O          -3.0470    1.5403    8.0011 O.3     1  UNL1        0.0000
     73 O           4.2032   -2.5927    9.7228 O.3     1  UNL1        0.0000
     74 O           0.7504    9.8559    3.4131 O.3     1  UNL1        0.0000
     75 O           1.5868    8.4690    4.9992 O.3     1  UNL1        0.0000
     76 O           2.6513   -2.3487    8.0962 O.3     1  UNL1        0.0000
     77 O           8.9649    4.4505    3.5334 O.3     1  UNL1        0.0000
     78 O          -3.8580    2.9274    9.5991 O.3     1  UNL1        0.0000
     79 O           6.2924    4.1956    2.5344 O.3     1  UNL1        0.0000
     80 O          -1.3538    2.0542   10.0994 O.3     1  UNL1        0.0000
     81 O           7.2312    6.4829    2.9843 O.3     1  UNL1        0.0000
     82 O          -3.1060    0.3296   10.5921 O.3     1  UNL1        0.0000
     83 O           1.5006   -2.8784   10.6868 O.3     1  UNL1        0.0000
     84 O           3.2690    9.0170    2.9149 O.3     1  UNL1        0.0000
     85 O           2.4545   -0.6169   10.2227 O.3     1  UNL1        0.0000
     86 O           1.5628    7.2599    2.3975 O.3     1  UNL1        0.0000
     87 O           3.8718   -3.7326   11.9889 O.2     1  UNL1        0.0000
     88 O           2.1193   10.9406    1.1409 O.2     1  UNL1        0.0000
     89 O           4.6739   -0.9445   11.9838 O.3     1  UNL1        0.0000
     90 O          -0.1167    9.1049    1.0808 O.2     1  UNL1        0.0000
     91 O           9.4121    6.1301    1.1270 O.2     1  UNL1        0.0000
     92 O          -4.7422    2.1697   11.9148 O.2     1  UNL1        0.0000
     93 O           8.6165    3.3758    1.1564 O.2     1  UNL1        0.0000
     94 O          -2.4740    3.9521   11.9961 O.3     1  UNL1        0.0000
     95 O           4.4842    6.5871    3.0354 O.3     1  UNL1        0.0000
     96 O          -0.2177   -0.4167   10.0165 O.3     1  UNL1        0.0000
     97 O           6.9383    5.3620    0.1026 O.3     1  UNL1        0.0000
     98 O           2.3707    8.4640   -0.0641 O.3     1  UNL1        0.0000
     99 H           3.7243    1.4902    8.5473 H       1  UNL1        0.0000
    100 H          -0.1504   -4.1723    6.4066 H       1  UNL1        0.0000
    101 H           4.5908   10.5634    5.0608 H       1  UNL1        0.0000
    102 H           4.7159    3.0335    6.8306 H       1  UNL1        0.0000
    103 H           0.0192    3.6735    8.3714 H       1  UNL1        0.0000
    104 H          -3.7781   -1.8665    6.5923 H       1  UNL1        0.0000
    105 H           1.3852    1.8261    9.2906 H       1  UNL1        0.0000
    106 H           1.0102    5.2156    6.6483 H       1  UNL1        0.0000
    107 H           5.8763    8.6404    4.1736 H       1  UNL1        0.0000
    108 H          -7.7711    8.8319    4.7601 H      54  UNL54       0.0000
    109 C           2.9202    4.2140    6.6433 C.ar    1  UNL1        0.0000
    110 C           1.8174    2.4986    8.5514 C.ar    1  UNL1        0.0000
    111 C           6.3509    9.3327    4.8676 C.ar    1  UNL1        0.0000
    112 C          -1.8994   -2.9233    6.5818 C.2     1  UNL1        0.0000
    113 C           1.5922    4.4002    7.0728 C.ar    1  UNL1        0.0000
    114 C           3.1394    2.3080    8.1294 C.ar    1  UNL1        0.0000
    115 C           5.6287   10.4260    5.3614 C.ar    1  UNL1        0.0000
    116 C          -1.1822   -4.0305    6.0907 C.3     1  UNL1        0.0000
    117 C           7.6839    9.1303    5.2465 C.ar    1  UNL1        0.0000
    118 C          -3.2386   -2.7245    6.1959 C.3     1  UNL1        0.0000
    119 C           3.6930    3.1647    7.1771 C.ar    1  UNL1        0.0000
    120 C           1.0441    3.5425    8.0276 C.ar    1  UNL1        0.0000
    121 O           4.7213    4.9354    5.2622 O.3     1  UNL1        0.0000
    122 O          -1.9177   -0.9471    7.9054 O.2     1  UNL1        0.0000
    123 O          -0.0791   -2.2520    7.9620 O.2     1  UNL1        0.0000
    124 O           2.7606    6.0339    5.1155 O.3     1  UNL1        0.0000
    125 N           6.5567    9.5204   27.1143 N.pl3   4  UNL4        0.0000
    126 N           6.5367   11.3623   28.2807 N.pl3   4  UNL4        0.0000
    127 C           7.8420    9.7026   27.6021 C.2     4  UNL4        0.0000
    128 C           7.8274   10.8612   28.3307 C.2     4  UNL4        0.0000
    129 C           6.2409   13.8141   27.9478 C.3     4  UNL4        0.0000
    130 C           6.1235    8.4334   26.2318 C.3     4  UNL4        0.0000
    131 C           5.7804   10.5342   27.5402 C.3     4  UNL4        0.0000
    132 C           6.0628   12.6242   28.8883 C.3     4  UNL4        0.0000
    133 H           8.6309    8.9848   27.4146 H       4  UNL4        0.0000
    134 H           8.6069   11.3508   28.8988 H       4  UNL4        0.0000
    135 H           7.2931   13.9636   27.6753 H       4  UNL4        0.0000
    136 H           6.5440    8.5850   25.2288 H       4  UNL4        0.0000
    137 H           5.6517   13.6834   27.0306 H       4  UNL4        0.0000
    138 H           6.4921    7.4769   26.6221 H       4  UNL4        0.0000
    139 H           5.8805   14.7250   28.4465 H       4  UNL4        0.0000
    140 H           6.6176   12.7441   29.8263 H       4  UNL4        0.0000
    141 H           5.0273    8.4365   26.1816 H       4  UNL4        0.0000
    142 H           4.7199   10.6446   27.3520 H       4  UNL4        0.0000
    143 H           5.0040   12.4827   29.1400 H       4  UNL4        0.0000
    144 TI         -7.4901   -4.8367   24.3410 Ti      1  UNL1        0.0000
    145 TI          3.3404   -1.9555   14.9762 Ti      1  UNL1        0.0000
    146 TI         -3.3934   -8.7729   22.5210 Ti      1  UNL1        0.0000
    147 TI         -1.8822    0.3893   16.7480 Ti      1  UNL1        0.0000
    148 TI         -2.8808    2.0676   14.8436 Ti      1  UNL1        0.0000
    149 TI         -1.5052   -9.0272   24.4744 Ti      1  UNL1        0.0000
    150 TI         -6.5409   -6.5726   22.4495 Ti      1  UNL1        0.0000
    151 TI          1.3526   -1.6529   16.8237 Ti      1  UNL1        0.0000
    152 H          -6.9882   -0.9396   24.1216 H       1  UNL1        0.0000
    153 H           4.1492   -5.8615   15.2969 H       1  UNL1        0.0000
    154 H         -11.4500   -5.5933   23.9586 H       1  UNL1        0.0000
    155 H           6.7225    0.0488   15.1769 H       1  UNL1        0.0000
    156 H          -0.5296  -13.0618   24.0885 H       1  UNL1        0.0000
    157 H          -6.9393    1.4777   15.1657 H       1  UNL1        0.0000
    158 H          -2.3863    0.4308   12.9705 H       1  UNL1        0.0000
    159 H           1.4649   -2.1982   13.2763 H       1  UNL1        0.0000
    160 H          -0.9953   -9.6943   18.9633 H       1  UNL1        0.0000
    161 H          -3.6056    2.2263   20.3670 H       1  UNL1        0.0000
    162 H         -10.6135   -3.1839   22.0936 H       1  UNL1        0.0000
    163 H           6.0951   -4.0398   17.2822 H       1  UNL1        0.0000
    164 H          -8.3124   -4.6314   18.7598 H       1  UNL1        0.0000
    165 H          -5.9809    3.8954   17.1969 H       1  UNL1        0.0000
    166 H          -2.4885    5.1704   15.6991 H       1  UNL1        0.0000
    167 H           3.9913   -7.8804   16.4994 H      54  UNL54       0.0000
    168 H           0.2104    0.0694   15.4094 H       1  UNL1        0.0000
    169 H          -4.4741   -6.9245   23.8147 H       1  UNL1        0.0000
    170 H           2.7295   -7.0924   22.8641 H       1  UNL1        0.0000
    171 H           1.2484   -7.5614   23.6114 H       1  UNL1        0.0000
    172 H           3.3037   -2.6587   21.7652 H       1  UNL1        0.0000
    173 H           2.7339   -2.3001   20.1466 H       1  UNL1        0.0000
    174 H           2.2407  -12.0472   22.6740 H       1  UNL1        0.0000
    175 H           0.9616  -10.9466   23.1314 H       1  UNL1        0.0000
    176 C           3.9184   -2.6967   17.8397 C.3     1  UNL1        0.0000
    177 C          -8.4506   -4.5753   21.4940 C.3     1  UNL1        0.0000
    178 C          -0.8129   -9.7836   21.5963 C.3     1  UNL1        0.0000
    179 C          -3.8183    2.3598   17.7074 C.3     1  UNL1        0.0000
    180 C           4.8144   -3.3010   18.8349 C.ar    1  UNL1        0.0000
    181 C          -9.3825   -3.9503   20.5169 C.2     1  UNL1        0.0000
    182 C           0.1273  -10.3979   20.6491 C.2     1  UNL1        0.0000
    183 C          -4.7081    3.0066   18.7071 C.ar    1  UNL1        0.0000
    184 C           4.5657   -3.2261   20.2413 C.ar    1  UNL1        0.0000
    185 C          -9.1661   -4.0703   19.1289 C.3     1  UNL1        0.0000
    186 C           1.2568  -11.1582   21.1022 C.2     1  UNL1        0.0000
    187 C          -5.8029    3.7795   18.2622 C.ar    1  UNL1        0.0000
    188 C          -4.4536    2.8358   20.0620 C.ar    1  UNL1        0.0000
    189 C          -0.1204  -10.2658   19.2652 C.3     1  UNL1        0.0000
    190 C           5.9481   -4.0000   18.3592 C.ar    1  UNL1        0.0000
    191 C         -10.4827   -3.2579   21.0156 C.2     1  UNL1        0.0000
    192 C           4.1302   -5.7824   13.1528 C.2     1  UNL1        0.0000
    193 C          -2.3395    6.0091   13.1778 C.ar    1  UNL1        0.0000
    194 C           6.6146   -0.0193   13.0268 C.ar    1  UNL1        0.0000
    195 C          -6.7437    1.5231   13.0074 C.2     1  UNL1        0.0000
    196 C          -1.1355   -1.9539   18.7126 C.3     1  UNL1        0.0000
    197 C          -5.8916   -9.0483   20.6307 C.2     1  UNL1        0.0000
    198 C           3.9943   -4.3276   13.1296 C.2     1  UNL1        0.0000
    199 C          -2.4323    4.5756   13.1403 C.3     1  UNL1        0.0000
    200 C           5.3168   -0.6362   13.0736 C.3     1  UNL1        0.0000
    201 C          -5.3414    1.9375   13.0319 C.2     1  UNL1        0.0000
    202 C           4.1695   -6.4516   14.3825 C.3     1  UNL1        0.0000
    203 C          -6.9773   -0.3512   25.0354 C.ar    1  UNL1        0.0000
    204 C           7.2699    0.2555   14.2607 C.ar    1  UNL1        0.0000
    205 C         -12.0115   -5.7727   24.8739 C.3     1  UNL1        0.0000
    206 C           2.6743   -6.8170   24.8884 C.ar    1  UNL1        0.0000
    207 C          -7.4409    1.2927   14.2199 C.3     1  UNL1        0.0000
    208 C          -0.4879  -13.5889   25.0375 C.3     1  UNL1        0.0000
    209 C          -2.3258    6.7603   14.4071 C.ar    1  UNL1        0.0000
    210 N          -2.2707    6.1615   15.6452 N.pl3   1  UNL1        0.0000
    211 N           2.0953   -6.9999   23.6494 N.pl3   1  UNL1        0.0000
    212 N           3.4848   -2.5799   20.7726 N.pl3   1  UNL1        0.0000
    213 N           1.5878  -11.3165   22.4196 N.pl3   1  UNL1        0.0000
    214 O           2.7421   -2.2916   18.2055 O.3     1  UNL1        0.0000
    215 O          -7.6816   -5.5262   21.0957 O.3     1  UNL1        0.0000
    216 O          -0.4314   -9.6591   22.8174 O.3     1  UNL1        0.0000
    217 O          -3.8842    2.7894   16.5078 O.3     1  UNL1        0.0000
    218 O          -3.0479    1.4026   18.0938 O.3     1  UNL1        0.0000
    219 O          -1.9833   -9.4151   21.1908 O.3     1  UNL1        0.0000
    220 O           4.3303   -2.6159   16.6280 O.3     1  UNL1        0.0000
    221 O          -8.4926   -4.1390   22.6937 O.3     1  UNL1        0.0000
    222 O           1.6578   -2.8708   15.6290 O.3     1  UNL1        0.0000
    223 O          -5.9884   -5.0122   23.1940 O.3     1  UNL1        0.0000
    224 O           2.5966   -0.5835   16.0789 O.3     1  UNL1        0.0000
    225 O          -7.7406   -6.7369   23.6867 O.3     1  UNL1        0.0000
    226 O          -3.1341   -9.9448   23.7814 O.3     1  UNL1        0.0000
    227 O          -1.3657    1.9506   16.0095 O.3     1  UNL1        0.0000
    228 O          -2.1801   -7.6833   23.3173 O.3     1  UNL1        0.0000
    229 O          -3.0719    0.1935   15.4921 O.3     1  UNL1        0.0000
    230 O          -0.7629  -10.7991   25.0835 O.2     1  UNL1        0.0000
    231 O          -2.5154    3.8742   14.2355 O.3     1  UNL1        0.0000
    232 O           0.0393   -8.0109   25.0784 O.3     1  UNL1        0.0000
    233 O          -4.7513    2.0385   14.1754 O.2     1  UNL1        0.0000
    234 O           4.7775   -0.9363   14.2216 O.3     1  UNL1        0.0000
    235 O          -9.3769   -4.8967   25.0094 O.2     1  UNL1        0.0000
    236 O           3.9819   -3.6907   14.2510 O.2     1  UNL1        0.0000
    237 O          -7.1087   -3.1144   25.0907 O.3     1  UNL1        0.0000
    238 O          -0.1504   -0.4794   16.1300 O.3     1  UNL1        0.0000
    239 O          -4.8524   -7.4832   23.1111 O.3     1  UNL1        0.0000
    240 O           2.3037   -1.7045   13.1972 O.3     1  UNL1        0.0000
    241 O          -2.2640    1.3976   13.0305 O.3     1  UNL1        0.0000
    242 H          -0.9104   -5.5763   21.6419 H       1  UNL1        0.0000
    243 H          -4.7851  -11.2387   19.5012 H       1  UNL1        0.0000
    244 H          -0.0438    3.4969   18.1554 H       1  UNL1        0.0000
    245 H           0.0813   -4.0329   19.9252 H       1  UNL1        0.0000
    246 H          -4.6154   -3.3929   21.4660 H       1  UNL1        0.0000
    247 H          -8.4127   -8.9330   19.6869 H       1  UNL1        0.0000
    248 H          -3.2494   -5.2403   22.3852 H       1  UNL1        0.0000
    249 H          -3.6244   -1.8508   19.7429 H       1  UNL1        0.0000
    250 H           1.2416    1.5740   17.2682 H       1  UNL1        0.0000
    251 H         -12.4057    1.7655   17.8548 H      54  UNL54       0.0000
    252 C          -1.7145   -2.8524   19.7379 C.ar    1  UNL1        0.0000
    253 C          -2.8173   -4.5678   21.6460 C.ar    1  UNL1        0.0000
    254 C           1.7162    2.2662   17.9622 C.ar    1  UNL1        0.0000
    255 C          -6.5340   -9.9897   19.6764 C.2     1  UNL1        0.0000
    256 C          -3.0425   -2.6662   20.1674 C.ar    1  UNL1        0.0000
    257 C          -1.4953   -4.7584   21.2240 C.ar    1  UNL1        0.0000
    258 C           0.9940    3.3596   18.4560 C.ar    1  UNL1        0.0000
    259 C          -5.8169  -11.0970   19.1853 C.3     1  UNL1        0.0000
    260 C           3.0492    2.0638   18.3411 C.ar    1  UNL1        0.0000
    261 C          -7.8732   -9.7909   19.2905 C.3     1  UNL1        0.0000
    262 C          -0.9417   -3.9018   20.2717 C.ar    1  UNL1        0.0000
    263 C          -3.5905   -3.5240   21.1222 C.ar    1  UNL1        0.0000
    264 O           0.0866   -2.1311   18.3569 O.3     1  UNL1        0.0000
    265 O          -6.5523   -8.0135   21.0000 O.2     1  UNL1        0.0000
    266 O          -4.7138   -9.3184   21.0566 O.2     1  UNL1        0.0000
    267 O          -1.8741   -1.0326   18.2101 O.3     1  UNL1        0.0000
    268 N           1.9221    2.4539   40.2089 N.pl3   7  UNL7        0.0000
    269 N           1.9021    4.2958   41.3753 N.pl3   7  UNL7        0.0000
    270 C           3.2073    2.6362   40.6967 C.2     7  UNL7        0.0000
    271 C           3.1927    3.7948   41.4253 C.2     7  UNL7        0.0000
    272 C           1.6063    6.7477   41.0424 C.3     7  UNL7        0.0000
    273 C           1.4889    1.3669   39.3264 C.3     7  UNL7        0.0000
    274 C           1.1457    3.4678   40.6348 C.3     7  UNL7        0.0000
    275 C           1.4281    5.5577   41.9829 C.3     7  UNL7        0.0000
    276 H           3.9963    1.9184   40.5092 H       7  UNL7        0.0000
    277 H           3.9722    4.2843   41.9934 H       7  UNL7        0.0000
    278 H           2.6585    6.8972   40.7699 H       7  UNL7        0.0000
    279 H           1.9093    1.5185   38.3234 H       7  UNL7        0.0000
    280 H           1.0171    6.6169   40.1252 H       7  UNL7        0.0000
    281 H           1.8575    0.4105   39.7167 H       7  UNL7        0.0000
    282 H           1.2458    7.6585   41.5411 H       7  UNL7        0.0000
    283 H           1.9830    5.6777   42.9209 H       7  UNL7        0.0000
    284 H           0.3926    1.3700   39.2762 H       7  UNL7        0.0000
    285 H           0.0853    3.5782   40.4466 H       7  UNL7        0.0000
    286 H           0.3694    5.4163   42.2346 H       7  UNL7        0.0000
    287 TI        -12.1247  -11.9031   37.4356 Ti      8  UNL8        0.0000
    288 TI         -1.2943   -9.0219   28.0708 Ti      1  UNL1        0.0000
    289 TI         -8.0280  -15.8393   35.6156 Ti      8  UNL8        0.0000
    290 TI         -6.5169   -6.6772   29.8426 Ti      1  UNL1        0.0000
    291 TI         -7.5154   -4.9989   27.9382 Ti      1  UNL1        0.0000
    292 TI         -6.1398  -16.0937   37.5690 Ti      8  UNL8        0.0000
    293 TI        -11.1755  -13.6390   35.5441 Ti      8  UNL8        0.0000
    294 TI         -3.2821   -8.7193   29.9183 Ti      1  UNL1        0.0000
    295 H         -11.6229   -8.0060   37.2162 H       1  UNL1        0.0000
    296 H          -0.4855  -12.9279   28.3915 H       1  UNL1        0.0000
    297 H         -16.0846  -12.6597   37.0532 H       2  UNL2        0.0000
    298 H           2.0879   -7.0176   28.2715 H       1  UNL1        0.0000
    299 H          -5.1642  -20.1282   37.1831 H       4  UNL4        0.0000
    300 H         -11.5740   -5.5888   28.2603 H       1  UNL1        0.0000
    301 H          -7.0210   -6.6357   26.0651 H       1  UNL1        0.0000
    302 H          -3.1698   -9.2646   26.3709 H       1  UNL1        0.0000
    303 H          -5.6299  -16.7608   32.0579 H       8  UNL8        0.0000
    304 H          -8.2403   -4.8402   33.4616 H       1  UNL1        0.0000
    305 H         -15.2481  -10.2504   35.1882 H       8  UNL8        0.0000
    306 H           1.4605  -11.1062   30.3768 H       1  UNL1        0.0000
    307 H         -12.9470  -11.6978   31.8544 H       8  UNL8        0.0000
    308 H         -10.6155   -3.1710   30.2915 H       1  UNL1        0.0000
    309 H          -7.1232   -1.8960   28.7937 H       1  UNL1        0.0000
    310 H          -0.6433  -14.9468   29.5940 H      54  UNL54       0.0000
    311 H          -4.4242   -6.9970   28.5040 H       1  UNL1        0.0000
    312 H          -9.1087  -13.9909   36.9093 H       8  UNL8        0.0000
    313 H          -1.9051  -14.1588   35.9587 H       3  UNL3        0.0000
    314 H          -3.3862  -14.6279   36.7060 H       3  UNL3        0.0000
    315 H          -1.3310   -9.7252   34.8598 H       1  UNL1        0.0000
    316 H          -1.9007   -9.3666   33.2412 H       1  UNL1        0.0000
    317 H          -2.3939  -19.1136   35.7686 H       8  UNL8        0.0000
    318 H          -3.6731  -18.0130   36.2260 H       8  UNL8        0.0000
    319 C          -0.7162   -9.7631   30.9343 C.3     1  UNL1        0.0000
    320 C         -13.0853  -11.6417   34.5886 C.3     8  UNL8        0.0000
    321 C          -5.4475  -16.8500   34.6909 C.3     8  UNL8        0.0000
    322 C          -8.4530   -4.7067   30.8020 C.3     1  UNL1        0.0000
    323 C           0.1798  -10.3674   31.9295 C.ar    1  UNL1        0.0000
    324 C         -14.0172  -11.0167   33.6115 C.2     8  UNL8        0.0000
    325 C          -4.5073  -17.4644   33.7437 C.2     8  UNL8        0.0000
    326 C          -9.3428   -4.0599   31.8018 C.ar    1  UNL1        0.0000
    327 C          -0.0690  -10.2925   33.3359 C.ar    1  UNL1        0.0000
    328 C         -13.8008  -11.1367   32.2235 C.3     8  UNL8        0.0000
    329 C          -3.3779  -18.2247   34.1968 C.2     8  UNL8        0.0000
    330 C         -10.4375   -3.2869   31.3568 C.ar    1  UNL1        0.0000
    331 C          -9.0883   -4.2306   33.1566 C.ar    1  UNL1        0.0000
    332 C          -4.7551  -17.3322   32.3598 C.3     8  UNL8        0.0000
    333 C           1.3135  -11.0664   31.4538 C.ar    1  UNL1        0.0000
    334 C         -15.1173  -10.3243   34.1102 C.2     8  UNL8        0.0000
    335 C          -0.5044  -12.8489   26.2474 C.2     1  UNL1        0.0000
    336 C          -6.9742   -1.0573   26.2724 C.ar    1  UNL1        0.0000
    337 C           1.9800   -7.0858   26.1214 C.ar    1  UNL1        0.0000
    338 C         -11.3783   -5.5433   26.1020 C.2     1  UNL1        0.0000
    339 C          -5.7701   -9.0204   31.8072 C.3     1  UNL1        0.0000
    340 C         -10.5262  -16.1147   33.7253 C.2     8  UNL8        0.0000
    341 C          -0.6403  -11.3940   26.2242 C.2     1  UNL1        0.0000
    342 C          -7.0669   -2.4908   26.2349 C.3     1  UNL1        0.0000
    343 C           0.6822   -7.7026   26.1683 C.3     1  UNL1        0.0000
    344 C          -9.9760   -5.1290   26.1265 C.2     1  UNL1        0.0000
    345 C          -0.4651  -13.5180   27.4771 C.3     1  UNL1        0.0000
    346 C         -11.6119   -7.4176   38.1301 C.2     1  UNL1        0.0000
    347 C           2.6353   -6.8110   27.3554 C.ar    1  UNL1        0.0000
    348 C         -16.6461  -12.8391   37.9685 C.3    10  UNL10       0.0000
    349 C          -1.9604  -13.8835   37.9830 C.2     3  UNL3        0.0000
    350 C         -12.0755   -5.7737   27.3145 C.3     1  UNL1        0.0000
    351 C          -5.1226  -20.6554   38.1321 C.3    11  UNL11       0.0000
    352 C          -6.9604   -0.3061   27.5017 C.ar    1  UNL1        0.0000
    353 N          -6.9053   -0.9049   28.7398 N.pl3   1  UNL1        0.0000
    354 N          -2.5394  -14.0663   36.7440 N.pl3   3  UNL3        0.0000
    355 N          -1.1498   -9.6463   33.8672 N.pl3   1  UNL1        0.0000
    356 N          -3.0469  -18.3829   35.5142 N.pl3   8  UNL8        0.0000
    357 O          -1.8925   -9.3580   31.3001 O.3     1  UNL1        0.0000
    358 O         -12.3163  -12.5926   34.1903 O.3     8  UNL8        0.0000
    359 O          -5.0661  -16.7255   35.9120 O.3     8  UNL8        0.0000
    360 O          -8.5188   -4.2770   29.6024 O.3     1  UNL1        0.0000
    361 O          -7.6825   -5.6639   31.1884 O.3     1  UNL1        0.0000
    362 O          -6.6180  -16.4816   34.2854 O.3     8  UNL8        0.0000
    363 O          -0.3043   -9.6824   29.7226 O.3     1  UNL1        0.0000
    364 O         -13.1273  -11.2055   35.7883 O.3     8  UNL8        0.0000
    365 O          -2.9769   -9.9373   28.7236 O.3     1  UNL1        0.0000
    366 O         -10.6231  -12.0786   36.2887 O.3     8  UNL8        0.0000
    367 O          -2.0381   -7.6500   29.1736 O.3     1  UNL1        0.0000
    368 O         -12.3753  -13.8033   36.7813 O.3     8  UNL8        0.0000
    369 O          -7.7687  -17.0113   36.8761 O.3     8  UNL8        0.0000
    370 O          -6.0003   -5.1159   29.1041 O.3     1  UNL1        0.0000
    371 O          -6.8148  -14.7498   36.4119 O.3     8  UNL8        0.0000
    372 O          -7.7065   -6.8730   28.5867 O.3     1  UNL1        0.0000
    373 O          -5.3975  -17.8655   38.1781 O.3     8  UNL8        0.0000
    374 O          -7.1500   -3.1922   27.3301 O.3     1  UNL1        0.0000
    375 O          -4.5954  -15.0773   38.1730 O.3     8  UNL8        0.0000
    376 O          -9.3860   -5.0280   27.2700 O.2     1  UNL1        0.0000
    377 O           0.1428   -8.0028   27.3162 O.3     1  UNL1        0.0000
    378 O         -14.0115  -11.9632   38.1041 O.3     8  UNL8        0.0000
    379 O          -0.6527  -10.7571   27.3456 O.2     1  UNL1        0.0000
    380 O         -11.7433  -10.1808   38.1853 O.3     8  UNL8        0.0000
    381 O          -4.7851   -7.5458   29.2246 O.3     1  UNL1        0.0000
    382 O          -9.4870  -14.5496   36.2057 O.3     8  UNL8        0.0000
    383 O          -2.3310   -8.7709   26.2918 O.3     1  UNL1        0.0000
    384 O          -6.8986   -5.6689   26.1251 O.3     1  UNL1        0.0000
    385 H          -5.5450  -12.6427   34.7365 H       1  UNL1        0.0000
    386 H          -9.4197  -18.3052   32.5958 H       8  UNL8        0.0000
    387 H          -4.6785   -3.5695   31.2500 H       1  UNL1        0.0000
    388 H          -4.5534  -11.0994   33.0198 H       1  UNL1        0.0000
    389 H          -9.2501  -10.4593   34.5606 H       1  UNL1        0.0000
    390 H         -13.0474  -15.9994   32.7815 H       8  UNL8        0.0000
    391 H          -7.8841  -12.3068   35.4798 H       1  UNL1        0.0000
    392 H          -8.2591   -8.9172   32.8375 H       1  UNL1        0.0000
    393 H          -3.3930   -5.4924   30.3628 H       1  UNL1        0.0000
    394 H         -17.0404   -5.3010   30.9494 H      54  UNL54       0.0000
    395 C          -6.3491   -9.9188   32.8325 C.ar    1  UNL1        0.0000
    396 C          -7.4519  -11.6342   34.7406 C.ar    1  UNL1        0.0000
    397 C          -2.9184   -4.8002   31.0568 C.ar    1  UNL1        0.0000
    398 C         -11.1687  -17.0562   32.7710 C.2     8  UNL8        0.0000
    399 C          -7.6771   -9.7327   33.2620 C.ar    1  UNL1        0.0000
    400 C          -6.1299  -11.8249   34.3186 C.ar    1  UNL1        0.0000
    401 C          -3.6406   -3.7068   31.5506 C.ar    1  UNL1        0.0000
    402 C         -10.4515  -18.1634   32.2800 C.3     8  UNL8        0.0000
    403 C          -1.5854   -5.0026   31.4357 C.ar    1  UNL1        0.0000
    404 C         -12.5079  -16.8574   32.3851 C.3     8  UNL8        0.0000
    405 C          -5.5763  -10.9682   33.3664 C.ar    1  UNL1        0.0000
    406 C          -8.2252  -10.5904   34.2168 C.ar    1  UNL1        0.0000
    407 O          -4.5480   -9.1975   31.4515 O.3     1  UNL1        0.0000
    408 O         -11.1870  -15.0800   34.0946 O.2     8  UNL8        0.0000
    409 O          -9.3484  -16.3849   34.1512 O.2     8  UNL8        0.0000
    410 O          -6.5087   -8.0990   31.3047 O.3     1  UNL1        0.0000
    411 N          -2.7125   -4.6125   53.3035 N.pl3  13  UNL13       0.0000
    412 N          -2.7326   -2.7706   54.4699 N.pl3  13  UNL13       0.0000
    413 C          -1.4273   -4.4303   53.7913 C.2    13  UNL13       0.0000
    414 C          -1.4419   -3.2717   54.5199 C.2    13  UNL13       0.0000
    415 C          -3.0284   -0.3188   54.1370 C.3    13  UNL13       0.0000
    416 C          -3.1458   -5.6995   52.4210 C.3    13  UNL13       0.0000
    417 C          -3.4889   -3.5987   53.7294 C.3    13  UNL13       0.0000
    418 C          -3.2065   -1.5087   55.0776 C.3    13  UNL13       0.0000
    419 H          -0.6384   -5.1481   53.6038 H      13  UNL13       0.0000
    420 H          -0.6624   -2.7821   55.0880 H      13  UNL13       0.0000
    421 H          -1.9761   -0.1693   53.8645 H      13  UNL13       0.0000
    422 H          -2.7253   -5.5479   51.4180 H      13  UNL13       0.0000
    423 H          -3.6175   -0.4495   53.2198 H      13  UNL13       0.0000
    424 H          -2.7772   -6.6560   52.8113 H      13  UNL13       0.0000
    425 H          -3.3888    0.5921   54.6357 H      13  UNL13       0.0000
    426 H          -2.6517   -1.3887   56.0155 H      13  UNL13       0.0000
    427 H          -4.2420   -5.6964   52.3708 H      13  UNL13       0.0000
    428 H          -4.5494   -3.4882   53.5413 H      13  UNL13       0.0000
    429 H          -4.2653   -1.6502   55.3292 H      13  UNL13       0.0000
    430 TI         -9.3725   16.8423   11.1899 Ti      1  UNL1        0.0000
    431 TI          1.4580   19.7235    1.8251 Ti      1  UNL1        0.0000
    432 TI         -5.2758   12.9061    9.3699 Ti      1  UNL1        0.0000
    433 TI         -3.7646   22.0682    3.5969 Ti      1  UNL1        0.0000
    434 TI         -4.7632   23.7465    1.6925 Ti      1  UNL1        0.0000
    435 TI         -3.3876   12.6517   11.3233 Ti      1  UNL1        0.0000
    436 TI         -8.4233   15.1064    9.2984 Ti      1  UNL1        0.0000
    437 TI         -0.5298   20.0260    3.6725 Ti      1  UNL1        0.0000
    438 H          -8.8706   20.7394   10.9704 H       1  UNL1        0.0000
    439 H           2.2668   15.8174    2.1458 H       1  UNL1        0.0000
    440 H         -13.3324   16.0856   10.8074 H       1  UNL1        0.0000
    441 H           4.8402   21.7278    2.0257 H       1  UNL1        0.0000
    442 H          -2.4120    8.6172   10.9373 H       1  UNL1        0.0000
    443 H          -8.8217   23.1566    2.0145 H       1  UNL1        0.0000
    444 H          -4.2687   22.1097   -0.1806 H       1  UNL1        0.0000
    445 H          -0.4175   19.4808    0.1251 H       1  UNL1        0.0000
    446 H          -2.8777   11.9846    5.8122 H       1  UNL1        0.0000
    447 H          -5.4880   23.9052    7.2158 H       1  UNL1        0.0000
    448 H         -12.4959   18.4950    8.9425 H       1  UNL1        0.0000
    449 H           4.2128   17.6392    4.1311 H       1  UNL1        0.0000
    450 H         -10.1948   17.0476    5.6087 H       1  UNL1        0.0000
    451 H          -7.8632   25.5744    4.0457 H       1  UNL1        0.0000
    452 H          -4.3709   26.8494    2.5479 H       1  UNL1        0.0000
    453 H           2.1090   13.7986    3.3482 H       1  UNL1        0.0000
    454 H          -1.6720   21.7483    2.2582 H       1  UNL1        0.0000
    455 H          -6.3565   14.7545   10.6635 H       1  UNL1        0.0000
    456 H           0.8472   14.5866    9.7129 H       1  UNL1        0.0000
    457 H          -0.6340   14.1175   10.4603 H       1  UNL1        0.0000
    458 H           1.4213   19.0202    8.6140 H       1  UNL1        0.0000
    459 H           0.8516   19.3788    6.9955 H       1  UNL1        0.0000
    460 H           0.3584    9.6318    9.5229 H       1  UNL1        0.0000
    461 H          -0.9208   10.7323    9.9803 H       1  UNL1        0.0000
    462 C           2.0360   18.9822    4.6886 C.3     1  UNL1        0.0000
    463 C         -10.3330   17.1037    8.3428 C.3     1  UNL1        0.0000
    464 C          -2.6953   11.8954    8.4452 C.3     1  UNL1        0.0000
    465 C          -5.7007   24.0387    4.5562 C.3     1  UNL1        0.0000
    466 C           2.9321   18.3779    5.6838 C.ar    1  UNL1        0.0000
    467 C         -11.2649   17.7287    7.3658 C.2     1  UNL1        0.0000
    468 C          -1.7551   11.2810    7.4980 C.ar    1  UNL1        0.0000
    469 C          -6.5905   24.6855    5.5560 C.ar    1  UNL1        0.0000
    470 C           2.6833   18.4528    7.0902 C.ar    1  UNL1        0.0000
    471 C         -11.0485   17.6087    5.9778 C.3     1  UNL1        0.0000
    472 C          -0.6256   10.5207    7.9511 C.ar    1  UNL1        0.0000
    473 C          -7.6853   25.4585    5.1111 C.ar    1  UNL1        0.0000
    474 C          -6.3360   24.5148    6.9109 C.ar    1  UNL1        0.0000
    475 C          -2.0028   11.4132    6.1141 C.ar    1  UNL1        0.0000
    476 C           4.0657   17.6789    5.2081 C.ar    1  UNL1        0.0000
    477 C         -12.3651   18.4211    7.8645 C.2     1  UNL1        0.0000
    478 C           2.2478   15.8965    0.0017 C.2     1  UNL1        0.0000
    479 C          -4.2219   27.6881    0.0267 C.2     1  UNL1        0.0000
    480 C           4.7323   21.6596   -0.1243 C.2     1  UNL1        0.0000
    481 C          -8.6261   23.2021   -0.1437 C.2     1  UNL1        0.0000
    482 C          -3.0179   19.7250    5.5615 C.3     1  UNL1        0.0000
    483 C          -7.7740   12.6307    7.4796 C.2     1  UNL1        0.0000
    484 C           2.1120   17.3514   -0.0215 C.2     1  UNL1        0.0000
    485 C          -4.3147   26.2546   -0.0108 C.2     1  UNL1        0.0000
    486 C           3.4344   21.0428   -0.0775 C.2     1  UNL1        0.0000
    487 C          -7.2238   23.6164   -0.1193 C.2     1  UNL1        0.0000
    488 C           2.2872   15.2274    1.2313 C.2     1  UNL1        0.0000
    489 C          -8.8597   21.3278   11.8843 C.ar    1  UNL1        0.0000
    490 C           5.3876   21.9344    1.1096 C.2     1  UNL1        0.0000
    491 C         -13.8939   15.9063   11.7228 C.3     1  UNL1        0.0000
    492 C           0.7919   14.8619   11.7373 C.ar    1  UNL1        0.0000
    493 C          -9.3233   22.9716    1.0687 C.3     1  UNL1        0.0000
    494 C          -2.3703    8.0900   11.8864 C.ar    1  UNL1        0.0000
    495 C          -4.2081   28.4393    1.2559 C.2     1  UNL1        0.0000
    496 N          -4.1531   27.8404    2.4941 N.pl3   1  UNL1        0.0000
    497 N           0.2129   14.6791   10.4983 N.pl3   1  UNL1        0.0000
    498 N           1.6024   19.0991    7.6215 N.pl3   1  UNL1        0.0000
    499 N          -0.2946   10.3625    9.2684 N.pl3   1  UNL1        0.0000
    500 O           0.8597   19.3873    5.0544 O.3     1  UNL1        0.0000
    501 O          -9.5640   16.1528    7.9446 O.3     1  UNL1        0.0000
    502 O          -2.3138   12.0199    9.6663 O.3     1  UNL1        0.0000
    503 O          -5.7666   24.4684    3.3566 O.3     1  UNL1        0.0000
    504 O          -4.9302   23.0815    4.9427 O.3     1  UNL1        0.0000
    505 O          -3.8657   12.2638    8.0397 O.3     1  UNL1        0.0000
    506 O           2.4479   19.0630    3.4769 O.3     1  UNL1        0.0000
    507 O         -10.3750   17.5399    9.5426 O.3     1  UNL1        0.0000
    508 O          -0.2246   18.8081    2.4778 O.3     1  UNL1        0.0000
    509 O          -7.8708   16.6667   10.0429 O.3     1  UNL1        0.0000
    510 O           0.7142   21.0954    2.9278 O.3     1  UNL1        0.0000
    511 O          -9.6230   14.9421   10.5356 O.3     1  UNL1        0.0000
    512 O          -5.0165   11.7341   10.6303 O.3     1  UNL1        0.0000
    513 O          -3.2480   23.6295    2.8584 O.3     1  UNL1        0.0000
    514 O          -4.0625   13.9956   10.1661 O.3     1  UNL1        0.0000
    515 O          -4.9543   21.8724    2.3410 O.3     1  UNL1        0.0000
    516 O          -2.6453   10.8799   11.9324 O.3     1  UNL1        0.0000
    517 O          -4.3978   25.5531    1.0844 O.2     1  UNL1        0.0000
    518 O          -1.8431   13.6681   11.9272 O.3     1  UNL1        0.0000
    519 O          -6.6337   23.7174    1.0243 O.2     1  UNL1        0.0000
    520 O           2.8951   20.7426    1.0705 O.2     1  UNL1        0.0000
    521 O         -11.2593   16.7822   11.8583 O.2     1  UNL1        0.0000
    522 O           2.0995   17.9883    1.0999 O.2     1  UNL1        0.0000
    523 O          -8.9911   18.5646   11.9396 O.3     1  UNL1        0.0000
    524 O          -2.0328   21.1996    2.9789 O.3     1  UNL1        0.0000
    525 O          -6.7347   14.1958    9.9599 O.3     1  UNL1        0.0000
    526 O           0.4213   19.9745    0.0461 O.3     1  UNL1        0.0000
    527 O          -4.1463   23.0765   -0.1206 O.3     1  UNL1        0.0000
    528 H          -2.7927   16.1027    8.4908 H       1  UNL1        0.0000
    529 H          -6.6675   10.4402    6.3501 H       1  UNL1        0.0000
    530 H          -1.9262   25.1759    5.0043 H       1  UNL1        0.0000
    531 H          -1.8011   17.6460    6.7741 H       1  UNL1        0.0000
    532 H          -6.4978   18.2860    8.3149 H       1  UNL1        0.0000
    533 H         -10.2951   12.7460    6.5358 H       1  UNL1        0.0000
    534 H          -5.1318   16.4386    9.2340 H       1  UNL1        0.0000
    535 H          -5.5068   19.8282    6.5918 H       1  UNL1        0.0000
    536 H          -0.6408   23.2529    4.1170 H       1  UNL1        0.0000
    537 H         -14.2881   23.4444    4.7036 H      54  UNL54       0.0000
    538 C          -3.5969   18.8266    6.5868 C.ar    1  UNL1        0.0000
    539 C          -4.6996   17.1111    8.4949 C.ar    1  UNL1        0.0000
    540 C          -0.1661   23.9452    4.8111 C.ar    1  UNL1        0.0000
    541 C          -8.4164   11.6892    6.5253 C.2     1  UNL1        0.0000
    542 C          -4.9248   19.0127    7.0163 C.ar    1  UNL1        0.0000
    543 C          -3.3777   16.9205    8.0729 C.ar    1  UNL1        0.0000
    544 C          -0.8884   25.0385    5.3049 C.ar    1  UNL1        0.0000
    545 C          -7.6992   10.5820    6.0342 C.3     1  UNL1        0.0000
    546 C           1.1668   23.7428    5.1899 C.ar    1  UNL1        0.0000
    547 C          -9.7556   11.8880    6.1394 C.3     1  UNL1        0.0000
    548 C          -2.8241   17.7772    7.1206 C.ar    1  UNL1        0.0000
    549 C          -5.4729   18.1550    7.9711 C.ar    1  UNL1        0.0000
    550 O          -1.7958   19.5479    5.2057 O.3     1  UNL1        0.0000
    551 O          -8.4347   13.6654    7.8489 O.2     1  UNL1        0.0000
    552 O          -6.5962   12.3605    7.9055 O.2     1  UNL1        0.0000
    553 O          -3.7564   20.6464    5.0590 O.3     1  UNL1        0.0000
    554 N           0.0397   24.1329   27.0578 N.pl3  15  UNL15       0.0000
    555 N           0.0197   25.9748   28.2242 N.pl3  15  UNL15       0.0000
    556 C           1.3249   24.3151   27.5456 C.2    15  UNL15       0.0000
    557 C           1.3103   25.4737   28.2741 C.2    15  UNL15       0.0000
    558 C          -0.2761   28.4266   27.8912 C.3    15  UNL15       0.0000
    559 C          -0.3935   23.0459   26.1753 C.3    15  UNL15       0.0000
    560 C          -0.7367   25.1467   27.4837 C.3    15  UNL15       0.0000
    561 C          -0.4542   27.2367   28.8318 C.3    15  UNL15       0.0000
    562 H           2.1139   23.5973   27.3581 H      15  UNL15       0.0000
    563 H           2.0898   25.9633   28.8423 H      15  UNL15       0.0000
    564 H           0.7761   28.5761   27.6188 H      15  UNL15       0.0000
    565 H           0.0269   23.1975   25.1723 H      15  UNL15       0.0000
    566 H          -0.8653   28.2959   26.9741 H      15  UNL15       0.0000
    567 H          -0.0249   22.0894   26.5656 H      15  UNL15       0.0000
    568 H          -0.6365   29.3375   28.3900 H      15  UNL15       0.0000
    569 H           0.1006   27.3567   29.7698 H      15  UNL15       0.0000
    570 H          -1.4898   23.0490   26.1251 H      15  UNL15       0.0000
    571 H          -1.7971   25.2571   27.2955 H      15  UNL15       0.0000
    572 H          -1.5130   27.0952   29.0834 H      15  UNL15       0.0000
    573 TI        -14.0071    9.7758   24.2845 Ti      1  UNL1        0.0000
    574 TI         -3.1766   12.6570   14.9197 Ti      1  UNL1        0.0000
    575 TI         -9.9104    5.8396   22.4645 Ti      1  UNL1        0.0000
    576 TI         -8.3992   15.0018   16.6915 Ti      1  UNL1        0.0000
    577 TI         -9.3978   16.6801   14.7871 Ti      1  UNL1        0.0000
    578 TI         -8.0222    5.5853   24.4179 Ti      1  UNL1        0.0000
    579 TI        -13.0579    8.0399   22.3930 Ti      1  UNL1        0.0000
    580 TI         -5.1645   12.9596   16.7671 Ti      1  UNL1        0.0000
    581 H         -13.5052   13.6729   24.0650 H       1  UNL1        0.0000
    582 H          -2.3679    8.7510   15.2404 H       1  UNL1        0.0000
    583 H         -17.9670    9.0192   23.9020 H       1  UNL1        0.0000
    584 H           0.2055   14.6613   15.1203 H       1  UNL1        0.0000
    585 H          -7.0466    1.5508   24.0320 H       1  UNL1        0.0000
    586 H         -13.4563   16.0902   15.1091 H       1  UNL1        0.0000
    587 H          -8.9034   15.0433   12.9140 H       1  UNL1        0.0000
    588 H          -5.0522   12.4144   13.2197 H       1  UNL1        0.0000
    589 H          -7.5123    4.9182   18.9068 H       1  UNL1        0.0000
    590 H         -10.1227   16.8388   20.3104 H       1  UNL1        0.0000
    591 H         -17.1305   11.4286   22.0371 H       1  UNL1        0.0000
    592 H          -0.4219   10.5727   17.2257 H       1  UNL1        0.0000
    593 H         -14.8294    9.9811   18.7033 H       1  UNL1        0.0000
    594 H         -12.4979   18.5079   17.1403 H       1  UNL1        0.0000
    595 H          -9.0056   19.7829   15.6426 H       1  UNL1        0.0000
    596 H          -2.5257    6.7322   16.4429 H       1  UNL1        0.0000
    597 H          -6.3066   14.6819   15.3528 H       1  UNL1        0.0000
    598 H         -10.9911    7.6880   23.7581 H       1  UNL1        0.0000
    599 H          -3.7875    7.5201   22.8075 H       1  UNL1        0.0000
    600 H          -5.2686    7.0511   23.5549 H       1  UNL1        0.0000
    601 H          -3.2134   11.9538   21.7086 H       1  UNL1        0.0000
    602 H          -3.7831   12.3124   20.0901 H       1  UNL1        0.0000
    603 H          -4.2763    2.5653   22.6175 H       1  UNL1        0.0000
    604 H          -5.5554    3.6659   23.0749 H       1  UNL1        0.0000
    605 C          -2.5986   11.9158   17.7832 C.3     1  UNL1        0.0000
    606 C         -14.9677   10.0372   21.4375 C.3     1  UNL1        0.0000
    607 C          -7.3299    4.8289   21.5398 C.3     1  UNL1        0.0000
    608 C         -10.3354   16.9723   17.6508 C.3     1  UNL1        0.0000
    609 C          -1.7026   11.3115   18.7784 C.ar    1  UNL1        0.0000
    610 C         -15.8996   10.6622   20.4604 C.2     1  UNL1        0.0000
    611 C          -6.3897    4.2146   20.5926 C.ar    1  UNL1        0.0000
    612 C         -11.2252   17.6191   18.6506 C.ar    1  UNL1        0.0000
    613 C          -1.9513   11.3864   20.1848 C.ar    1  UNL1        0.0000
    614 C         -15.6832   10.5423   19.0724 C.3     1  UNL1        0.0000
    615 C          -5.2603    3.4543   21.0457 C.ar    1  UNL1        0.0000
    616 C         -12.3199   18.3920   18.2057 C.ar    1  UNL1        0.0000
    617 C         -10.9707   17.4483   20.0055 C.ar    1  UNL1        0.0000
    618 C          -6.6374    4.3467   19.2087 C.ar    1  UNL1        0.0000
    619 C          -0.5689   10.6125   18.3027 C.ar    1  UNL1        0.0000
    620 C         -16.9997   11.3547   20.9591 C.2     1  UNL1        0.0000
    621 C          -2.3868    8.8301   13.0963 C.ar    1  UNL1        0.0000
    622 C          -8.8566   20.6217   13.1213 C.ar    1  UNL1        0.0000
    623 C           0.0976   14.5932   12.9703 C.ar    1  UNL1        0.0000
    624 C         -13.2607   16.1356   12.9509 C.2     1  UNL1        0.0000
    625 C          -7.6525   12.6586   18.6561 C.3     1  UNL1        0.0000
    626 C         -12.4086    5.5642   20.5742 C.2     1  UNL1        0.0000
    627 C          -2.5227   10.2849   13.0731 C.3     1  UNL1        0.0000
    628 C          -8.9493   19.1881   13.0838 C.3     1  UNL1        0.0000
    629 C          -1.2002   13.9764   13.0171 C.3     1  UNL1        0.0000
    630 C         -11.8584   16.5500   12.9753 C.2     1  UNL1        0.0000
    631 C          -2.3475    8.1610   14.3259 C.ar    1  UNL1        0.0000
    632 C         -13.4943   14.2613   24.9789 C.ar    1  UNL1        0.0000
    633 C           0.7529   14.8680   14.2042 C.ar    1  UNL1        0.0000
    634 C         -18.5285    8.8398   24.8174 C.3     1  UNL1        0.0000
    635 C          -3.8427    7.7955   24.8319 C.ar    1  UNL1        0.0000
    636 C         -13.9579   15.9052   14.1633 C.3     1  UNL1        0.0000
    637 C          -7.0050    1.0236   24.9810 C.ar    1  UNL1        0.0000
    638 C          -8.8428   21.3728   14.3506 C.ar    1  UNL1        0.0000
    639 N          -8.7877   20.7740   15.5887 N.pl3   1  UNL1        0.0000
    640 N          -4.4218    7.6126   23.5929 N.pl3   1  UNL1        0.0000
    641 N          -3.0322   12.0327   20.7161 N.pl3   1  UNL1        0.0000
    642 N          -4.9293    3.2960   22.3631 N.pl3   1  UNL1        0.0000
    643 O          -3.7749   12.3209   18.1490 O.3     1  UNL1        0.0000
    644 O         -14.1987    9.0864   21.0392 O.3     1  UNL1        0.0000
    645 O          -6.9485    4.9534   22.7609 O.3     1  UNL1        0.0000
    646 O         -10.4012   17.4020   16.4512 O.3     1  UNL1        0.0000
    647 O          -9.5649   16.0151   18.0373 O.3     1  UNL1        0.0000
    648 O          -8.5003    5.1974   21.1343 O.3     1  UNL1        0.0000
    649 O          -2.1867   11.9966   16.5715 O.3     1  UNL1        0.0000
    650 O         -15.0097   10.4735   22.6372 O.3     1  UNL1        0.0000
    651 O          -4.8592   11.7417   15.5724 O.3     1  UNL1        0.0000
    652 O         -12.5055    9.6003   23.1375 O.3     1  UNL1        0.0000
    653 O          -3.9204   14.0290   16.0224 O.3     1  UNL1        0.0000
    654 O         -14.2576    7.8756   23.6302 O.3     1  UNL1        0.0000
    655 O          -9.6511    4.6677   23.7249 O.3     1  UNL1        0.0000
    656 O          -7.8827   16.5631   15.9530 O.3     1  UNL1        0.0000
    657 O          -8.6972    6.9292   23.2607 O.3     1  UNL1        0.0000
    658 O          -9.5889   14.8060   15.4356 O.3     1  UNL1        0.0000
    659 O          -7.2799    3.8134   25.0270 O.3     1  UNL1        0.0000
    660 O          -9.0324   18.4867   14.1790 O.3     1  UNL1        0.0000
    661 O          -6.4778    6.6016   25.0219 O.3     1  UNL1        0.0000
    662 O         -11.2684   16.6510   14.1189 O.2     1  UNL1        0.0000
    663 O          -1.7396   13.6762   14.1651 O.3     1  UNL1        0.0000
    664 O         -15.8939    9.7158   24.9529 O.2     1  UNL1        0.0000
    665 O          -2.5351   10.9219   14.1945 O.3     1  UNL1        0.0000
    666 O         -13.6257   11.4981   25.0342 O.3     1  UNL1        0.0000
    667 O          -6.6674   14.1331   16.0735 O.3     1  UNL1        0.0000
    668 O         -11.3694    7.1293   23.0545 O.3     1  UNL1        0.0000
    669 O          -4.2133   12.9080   13.1407 O.3     1  UNL1        0.0000
    670 O          -8.7810   16.0101   12.9740 O.3     1  UNL1        0.0000
    671 H          -7.4274    9.0362   21.5854 H       1  UNL1        0.0000
    672 H         -11.3021    3.3738   19.4447 H       1  UNL1        0.0000
    673 H          -6.5609   18.1094   18.0989 H       1  UNL1        0.0000
    674 H          -6.4358   10.5796   19.8687 H       1  UNL1        0.0000
    675 H         -11.1325   11.2196   21.4095 H       1  UNL1        0.0000
    676 H         -14.9298    5.6795   19.6304 H       1  UNL1        0.0000
    677 H          -9.7664    9.3722   22.3287 H       1  UNL1        0.0000
    678 H         -10.1414   12.7617   19.6864 H       1  UNL1        0.0000
    679 H          -5.2754   16.1865   17.2116 H       1  UNL1        0.0000
    680 H         -18.9227   16.3780   17.7982 H      54  UNL54       0.0000
    681 C          -8.2315   11.7601   19.6814 C.ar    1  UNL1        0.0000
    682 C          -9.3343   10.0447   21.5895 C.ar    1  UNL1        0.0000
    683 C          -4.8008   16.8787   17.9057 C.ar    1  UNL1        0.0000
    684 C         -13.0510    4.6228   19.6199 C.2     1  UNL1        0.0000
    685 C          -9.5595   11.9463   20.1109 C.ar    1  UNL1        0.0000
    686 C          -8.0123    9.8541   21.1675 C.ar    1  UNL1        0.0000
    687 C          -5.5230   17.9721   18.3995 C.ar    1  UNL1        0.0000
    688 C         -12.3339    3.5156   19.1288 C.3     1  UNL1        0.0000
    689 C          -3.4678   16.6763   18.2846 C.ar    1  UNL1        0.0000
    690 C         -14.3903    4.8216   19.2340 C.3     1  UNL1        0.0000
    691 C          -7.4587   10.7108   20.2152 C.ar    1  UNL1        0.0000
    692 C         -10.1075   11.0885   21.0657 C.ar    1  UNL1        0.0000
    693 O          -6.4304   12.4814   18.3003 O.3     1  UNL1        0.0000
    694 O         -13.0694    6.5990   20.9435 O.2     1  UNL1        0.0000
    695 O         -11.2308    5.2941   21.0001 O.2     1  UNL1        0.0000
    696 O          -8.3911   13.5799   18.1536 O.3     1  UNL1        0.0000
    697 N          -4.5949   17.0665   40.1524 N.pl3  17  UNL17       0.0000
    698 N          -4.6149   18.9083   41.3188 N.pl3  17  UNL17       0.0000
    699 C          -3.3097   17.2487   40.6402 C.2    17  UNL17       0.0000
    700 C          -3.3243   18.4073   41.3687 C.2    17  UNL17       0.0000
    701 C          -4.9108   21.3602   40.9859 C.3    17  UNL17       0.0000
    702 C          -5.0281   15.9794   39.2699 C.3    17  UNL17       0.0000
    703 C          -5.3713   18.0803   40.5783 C.3    17  UNL17       0.0000
    704 C          -5.0889   20.1702   41.9264 C.3    17  UNL17       0.0000
    705 H          -2.5208   16.5309   40.4527 H      17  UNL17       0.0000
    706 H          -2.5448   18.8968   41.9369 H      17  UNL17       0.0000
    707 H          -3.8585   21.5097   40.7134 H      17  UNL17       0.0000
    708 H          -4.6077   16.1310   38.2669 H      17  UNL17       0.0000
    709 H          -5.4999   21.2294   40.0687 H      17  UNL17       0.0000
    710 H          -4.6595   15.0230   39.6602 H      17  UNL17       0.0000
    711 H          -5.2712   22.2710   41.4846 H      17  UNL17       0.0000
    712 H          -4.5341   20.2902   42.8644 H      17  UNL17       0.0000
    713 H          -6.1244   15.9825   39.2197 H      17  UNL17       0.0000
    714 H          -6.4318   18.1907   40.3901 H      17  UNL17       0.0000
    715 H          -6.1477   20.0288   42.1781 H      17  UNL17       0.0000
    716 TI        -18.6418    2.7094   37.3791 Ti      1  UNL1        0.0000
    717 TI         -7.8113    5.5906   28.0143 Ti      1  UNL1        0.0000
    718 TI        -14.5451   -1.2268   35.5591 Ti      1  UNL1        0.0000
    719 TI        -13.0339    7.9353   29.7861 Ti      1  UNL1        0.0000
    720 TI        -14.0325    9.6136   27.8817 Ti      1  UNL1        0.0000
    721 TI        -12.6569   -1.4811   37.5125 Ti      1  UNL1        0.0000
    722 TI        -17.6926    0.9735   35.4876 Ti      1  UNL1        0.0000
    723 TI         -9.7991    5.8932   29.8618 Ti      1  UNL1        0.0000
    724 H         -18.1399    6.6065   37.1596 H       5  UNL5        0.0000
    725 H          -7.0025    1.6846   28.3350 H       1  UNL1        0.0000
    726 H         -22.6017    1.9528   36.9966 H       6  UNL6        0.0000
    727 H          -4.4291    7.5949   28.2149 H       1  UNL1        0.0000
    728 H         -11.6813   -5.5157   37.1266 H       1  UNL1        0.0000
    729 H         -18.0910    9.0237   28.2038 H       1  UNL1        0.0000
    730 H         -13.5380    7.9768   26.0086 H       1  UNL1        0.0000
    731 H          -9.6868    5.3479   26.3144 H       1  UNL1        0.0000
    732 H         -12.1470   -2.1483   32.0014 H       1  UNL1        0.0000
    733 H         -14.7573    9.7724   33.4050 H       1  UNL1        0.0000
    734 H         -21.7652    4.3621   35.1317 H       1  UNL1        0.0000
    735 H          -5.0565    3.5063   30.3203 H       1  UNL1        0.0000
    736 H         -19.4641    2.9147   31.7979 H       1  UNL1        0.0000
    737 H         -17.1325   11.4415   30.2349 H       1  UNL1        0.0000
    738 H         -13.6402   12.7165   28.7372 H       1  UNL1        0.0000
    739 H          -7.1603   -0.3343   29.5375 H       1  UNL1        0.0000
    740 H         -10.9413    7.6155   28.4475 H       1  UNL1        0.0000
    741 H         -15.6258    0.6216   36.8527 H       1  UNL1        0.0000
    742 H          -8.4221    0.4537   35.9021 H       7  UNL7        0.0000
    743 H          -9.9033   -0.0154   36.6495 H       7  UNL7        0.0000
    744 H          -7.8480    4.8873   34.8032 H       1  UNL1        0.0000
    745 H          -8.4177    5.2459   33.1847 H       1  UNL1        0.0000
    746 H          -8.9109   -4.5011   35.7121 H       1  UNL1        0.0000
    747 H         -10.1901   -3.4005   36.1695 H       1  UNL1        0.0000
    748 C          -7.2332    4.8494   30.8778 C.3     1  UNL1        0.0000
    749 C         -19.6023    2.9708   34.5321 C.3     1  UNL1        0.0000
    750 C         -11.9646   -2.2375   34.6344 C.3     1  UNL1        0.0000
    751 C         -14.9700    9.9058   30.7454 C.3     1  UNL1        0.0000
    752 C          -6.3372    4.2451   31.8730 C.ar    1  UNL1        0.0000
    753 C         -20.5342    3.5958   33.5550 C.2     1  UNL1        0.0000
    754 C         -11.0244   -2.8519   33.6872 C.ar    1  UNL1        0.0000
    755 C         -15.8598   10.5526   31.7452 C.ar    1  UNL1        0.0000
    756 C          -6.5860    4.3200   33.2794 C.ar    1  UNL1        0.0000
    757 C         -20.3178    3.4758   32.1670 C.3     1  UNL1        0.0000
    758 C          -9.8949   -3.6122   34.1403 C.ar    1  UNL1        0.0000
    759 C         -16.9545   11.3256   31.3003 C.ar    1  UNL1        0.0000
    760 C         -15.6053   10.3819   33.1001 C.ar    1  UNL1        0.0000
    761 C         -11.2721   -2.7197   32.3033 C.ar    1  UNL1        0.0000
    762 C          -5.2036    3.5461   31.3973 C.ar    1  UNL1        0.0000
    763 C         -21.6344    4.2882   34.0537 C.2     1  UNL1        0.0000
    764 C          -7.0215    1.7636   26.1909 C.ar    1  UNL1        0.0000
    765 C         -13.4912   13.5552   26.2159 C.ar    1  UNL1        0.0000
    766 C          -4.5370    7.5267   26.0649 C.ar    1  UNL1        0.0000
    767 C         -17.8954    9.0692   26.0455 C.2     1  UNL1        0.0000
    768 C         -12.2872    5.5922   31.7507 C.3     1  UNL1        0.0000
    769 C         -17.0433   -1.5022   33.6688 C.2     1  UNL1        0.0000
    770 C          -7.1573    3.2185   26.1677 C.3     1  UNL1        0.0000
    771 C         -13.5840   12.1217   26.1784 C.3     1  UNL1        0.0000
    772 C          -5.8349    6.9099   26.1117 C.3     1  UNL1        0.0000
    773 C         -16.4931    9.4835   26.0699 C.2     1  UNL1        0.0000
    774 C          -6.9821    1.0945   27.4206 C.ar    1  UNL1        0.0000
    775 C         -18.1290    7.1949   38.0735 C.2     5  UNL5        0.0000
    776 C          -3.8817    7.8015   27.2988 C.ar    1  UNL1        0.0000
    777 C         -23.1632    1.7734   37.9120 C.3    18  UNL18       0.0000
    778 C          -8.4774    0.7290   37.9265 C.2     7  UNL7        0.0000
    779 C         -18.5926    8.8388   27.2580 C.3     1  UNL1        0.0000
    780 C         -11.6396   -6.0428   38.0756 C.2     1  UNL1        0.0000
    781 C         -13.4774   14.3064   27.4452 C.ar    1  UNL1        0.0000
    782 N         -13.4224   13.7076   28.6833 N.pl3   1  UNL1        0.0000
    783 N          -9.0564    0.5462   36.6875 N.pl3   7  UNL7        0.0000
    784 N          -7.6669    4.9662   33.8107 N.pl3   1  UNL1        0.0000
    785 N          -9.5639   -3.7704   35.4577 N.pl3   1  UNL1        0.0000
    786 O          -8.4096    5.2545   31.2436 O.3     1  UNL1        0.0000
    787 O         -18.8333    2.0199   34.1338 O.3     1  UNL1        0.0000
    788 O         -11.5831   -2.1130   35.8555 O.3     1  UNL1        0.0000
    789 O         -15.0359   10.3355   29.5458 O.3     1  UNL1        0.0000
    790 O         -14.1995    8.9486   31.1319 O.3     1  UNL1        0.0000
    791 O         -13.1350   -1.8691   34.2289 O.3     1  UNL1        0.0000
    792 O          -6.8214    4.9301   29.6661 O.3     1  UNL1        0.0000
    793 O         -19.6443    3.4070   35.7318 O.3     1  UNL1        0.0000
    794 O          -9.4939    4.6753   28.6671 O.3     1  UNL1        0.0000
    795 O         -17.1401    2.5339   36.2321 O.3     1  UNL1        0.0000
    796 O          -8.5551    6.9625   29.1170 O.3     1  UNL1        0.0000
    797 O         -18.8923    0.8092   36.7248 O.3     1  UNL1        0.0000
    798 O         -14.2858   -2.3988   36.8195 O.3     1  UNL1        0.0000
    799 O         -12.5173    9.4966   29.0476 O.3     1  UNL1        0.0000
    800 O         -13.3318   -0.1373   36.3554 O.3     1  UNL1        0.0000
    801 O         -14.2236    7.7395   28.5302 O.3     1  UNL1        0.0000
    802 O         -11.9145   -3.2530   38.1216 O.3     1  UNL1        0.0000
    803 O         -13.6671   11.4203   27.2736 O.3     1  UNL1        0.0000
    804 O         -11.1124   -0.4648   38.1165 O.3     1  UNL1        0.0000
    805 O         -15.9030    9.5845   27.2135 O.2     1  UNL1        0.0000
    806 O          -6.3742    6.6097   27.2597 O.3     1  UNL1        0.0000
    807 O         -20.5285    2.6493   38.0475 O.3     1  UNL1        0.0000
    808 O          -7.1698    3.8554   27.2891 O.3     1  UNL1        0.0000
    809 O         -18.2603    4.4317   38.1288 O.3     1  UNL1        0.0000
    810 O         -11.3021    7.0667   29.1681 O.3     1  UNL1        0.0000
    811 O         -16.0040    0.0629   36.1492 O.3     1  UNL1        0.0000
    812 O          -8.8480    5.8416   26.2353 O.3     1  UNL1        0.0000
    813 O         -13.4156    8.9436   26.0686 O.3     1  UNL1        0.0000
    814 H         -12.0620    1.9698   34.6800 H       1  UNL1        0.0000
    815 H         -15.9368   -3.6927   32.5393 H       1  UNL1        0.0000
    816 H         -11.1955   11.0430   31.1935 H       1  UNL1        0.0000
    817 H         -11.0704    3.5132   32.9633 H       1  UNL1        0.0000
    818 H         -15.7671    4.1532   34.5041 H       1  UNL1        0.0000
    819 H         -19.5644   -1.3869   32.7250 H       1  UNL1        0.0000
    820 H         -14.4011    2.3057   35.4233 H       1  UNL1        0.0000
    821 H         -14.7761    5.6953   32.7810 H       1  UNL1        0.0000
    822 H          -9.9100    9.1201   30.3063 H       1  UNL1        0.0000
    823 H         -23.5574    9.3115   30.8928 H      54  UNL54       0.0000
    824 C         -12.8661    4.6937   32.7760 C.ar    1  UNL1        0.0000
    825 C         -13.9689    2.9783   34.6841 C.ar    1  UNL1        0.0000
    826 C          -9.4354    9.8123   31.0003 C.ar    1  UNL1        0.0000
    827 C         -17.6857   -2.4437   32.7145 C.2     1  UNL1        0.0000
    828 C         -14.1941    4.8798   33.2055 C.ar    1  UNL1        0.0000
    829 C         -12.6470    2.7877   34.2621 C.ar    1  UNL1        0.0000
    830 C         -10.1577   10.9057   31.4941 C.ar    1  UNL1        0.0000
    831 C         -16.9685   -3.5509   32.2234 C.3     1  UNL1        0.0000
    832 C          -8.1025    9.6099   31.3792 C.ar    1  UNL1        0.0000
    833 C         -19.0249   -2.2449   32.3286 C.3     1  UNL1        0.0000
    834 C         -12.0934    3.6443   33.3098 C.ar    1  UNL1        0.0000
    835 C         -14.7422    4.0221   34.1603 C.ar    1  UNL1        0.0000
    836 O         -11.0651    5.4150   31.3949 O.3     1  UNL1        0.0000
    837 O         -17.7040   -0.4675   34.0381 O.2     1  UNL1        0.0000
    838 O         -15.8655   -1.7724   34.0947 O.2     1  UNL1        0.0000
    839 O         -13.0257    6.5135   31.2482 O.3     1  UNL1        0.0000
    840 N          -9.2296   10.0000   53.2470 N.pl3  20  UNL20       0.0000
    841 N          -9.2496   11.8419   54.4134 N.pl3  20  UNL20       0.0000
    842 C          -7.9444   10.1822   53.7348 C.2    20  UNL20       0.0000
    843 C          -7.9590   11.3409   54.4634 C.2    20  UNL20       0.0000
    844 C          -9.5454   14.2937   54.0805 C.3    20  UNL20       0.0000
    845 C          -9.6628    8.9130   52.3645 C.3    20  UNL20       0.0000
    846 C         -10.0059   11.0139   53.6729 C.3    20  UNL20       0.0000
    847 C          -9.7235   13.1038   55.0210 C.3    20  UNL20       0.0000
    848 H          -7.1554    9.4644   53.5473 H      20  UNL20       0.0000
    849 H          -7.1795   11.8304   55.0315 H      20  UNL20       0.0000
    850 H          -8.4932   14.4432   53.8080 H      20  UNL20       0.0000
    851 H          -9.2424    9.0646   51.3615 H      20  UNL20       0.0000
    852 H         -10.1346   14.1630   53.1633 H      20  UNL20       0.0000
    853 H          -9.2942    7.9565   52.7548 H      20  UNL20       0.0000
    854 H          -9.9058   15.2046   54.5792 H      20  UNL20       0.0000
    855 H          -9.1687   13.2238   55.9590 H      20  UNL20       0.0000
    856 H         -10.7591    8.9161   52.3143 H      20  UNL20       0.0000
    857 H         -11.0664   11.1243   53.4847 H      20  UNL20       0.0000
    858 H         -10.7823   12.9624   55.2727 H      20  UNL20       0.0000
    859 TI        -15.8895   31.4548   11.1334 Ti      1  UNL1        0.0000
    860 TI         -5.0590   34.3360    1.7686 Ti      1  UNL1        0.0000
    861 TI        -11.7928   27.5186    9.3134 Ti      1  UNL1        0.0000
    862 TI        -10.2816   36.6807    3.5403 Ti      1  UNL1        0.0000
    863 TI        -11.2802   38.3590    1.6360 Ti      1  UNL1        0.0000
    864 TI         -9.9046   27.2642   11.2667 Ti      1  UNL1        0.0000
    865 TI        -14.9403   29.7189    9.2419 Ti      1  UNL1        0.0000
    866 TI         -7.0468   34.6385    3.6160 Ti      1  UNL1        0.0000
    867 H         -15.3876   35.3519   10.9139 H       1  UNL1        0.0000
    868 H          -4.2502   30.4299    2.0892 H       1  UNL1        0.0000
    869 H         -19.8494   30.6982   10.7509 H       1  UNL1        0.0000
    870 H          -1.6769   36.3403    1.9692 H       1  UNL1        0.0000
    871 H          -8.9290   23.2297   10.8808 H       1  UNL1        0.0000
    872 H         -15.3387   37.7691    1.9580 H       1  UNL1        0.0000
    873 H         -10.7857   36.7222   -0.2371 H       1  UNL1        0.0000
    874 H          -6.9345   34.0933    0.0686 H       1  UNL1        0.0000
    875 H          -9.3947   26.5971    5.7556 H       1  UNL1        0.0000
    876 H         -12.0051   38.5177    7.1593 H       1  UNL1        0.0000
    877 H         -19.0129   33.1075    8.8860 H       1  UNL1        0.0000
    878 H          -2.3043   32.2517    4.0745 H       1  UNL1        0.0000
    879 H         -16.7118   31.6601    5.5521 H       1  UNL1        0.0000
    880 H         -14.3803   40.1869    3.9892 H       1  UNL1        0.0000
    881 H         -10.8879   41.4619    2.4914 H       1  UNL1        0.0000
    882 H          -4.4081   28.4111    3.2917 H       1  UNL1        0.0000
    883 H          -8.1890   36.3608    2.2017 H       1  UNL1        0.0000
    884 H         -12.8735   29.3670   10.6070 H       1  UNL1        0.0000
    885 H          -5.6699   29.1991    9.6564 H       1  UNL1        0.0000
    886 H          -7.1510   28.7300   10.4037 H       1  UNL1        0.0000
    887 H          -5.0957   33.6327    8.5575 H       1  UNL1        0.0000
    888 H          -5.6655   33.9913    6.9390 H       1  UNL1        0.0000
    889 H          -6.1587   24.2443    9.4664 H       1  UNL1        0.0000
    890 H          -7.4378   25.3448    9.9238 H       1  UNL1        0.0000
    891 C          -4.4810   33.5948    4.6321 C.3     1  UNL1        0.0000
    892 C         -16.8500   31.7162    8.2863 C.3     1  UNL1        0.0000
    893 C          -9.2123   26.5079    8.3887 C.3     1  UNL1        0.0000
    894 C         -12.2177   38.6512    4.4997 C.3     1  UNL1        0.0000
    895 C          -3.5850   32.9904    5.6273 C.ar    1  UNL1        0.0000
    896 C         -17.7819   32.3412    7.3093 C.2     1  UNL1        0.0000
    897 C          -8.2721   25.8935    7.4415 C.ar    1  UNL1        0.0000
    898 C         -13.1076   39.2980    5.4995 C.2     1  UNL1        0.0000
    899 C          -3.8337   33.0654    7.0337 C.ar    1  UNL1        0.0000
    900 C         -17.5656   32.2212    5.9213 C.3     1  UNL1        0.0000
    901 C          -7.1427   25.1332    7.8945 C.ar    1  UNL1        0.0000
    902 C         -14.2023   40.0710    5.0546 C.3     1  UNL1        0.0000
    903 C         -12.8531   39.1273    6.8544 C.2     1  UNL1        0.0000
    904 C          -8.5198   26.0257    6.0575 C.ar    1  UNL1        0.0000
    905 C          -2.4513   32.2915    5.1516 C.ar    1  UNL1        0.0000
    906 C         -18.8821   33.0336    7.8080 C.2     1  UNL1        0.0000
    907 C          -4.2692   30.5090   -0.0549 C.2     1  UNL1        0.0000
    908 C         -10.7389   42.3006   -0.0298 C.2     1  UNL1        0.0000
    909 C          -1.7848   36.2721   -0.1809 C.2     1  UNL1        0.0000
    910 C         -15.1431   37.8146   -0.2003 C.2     1  UNL1        0.0000
    911 C          -9.5349   34.3375    5.5049 C.3     1  UNL1        0.0000
    912 C         -14.2910   27.2432    7.4231 C.2     1  UNL1        0.0000
    913 C          -4.4051   31.9639   -0.0781 C.2     1  UNL1        0.0000
    914 C         -10.8317   40.8671   -0.0673 C.2     1  UNL1        0.0000
    915 C          -3.0826   35.6553   -0.1340 C.2     1  UNL1        0.0000
    916 C         -13.7408   38.2289   -0.1758 C.2     1  UNL1        0.0000
    917 C          -4.2299   29.8399    1.1748 C.2     1  UNL1        0.0000
    918 C         -15.3767   35.9403   11.8278 C.3     1  UNL1        0.0000
    919 C          -1.1295   36.5469    1.0531 C.2     1  UNL1        0.0000
    920 C         -20.4109   30.5188   11.6663 C.3     1  UNL1        0.0000
    921 C          -5.7251   29.4744   11.6808 C.ar    1  UNL1        0.0000
    922 C         -15.8403   37.5841    1.0122 C.3     1  UNL1        0.0000
    923 C          -8.8874   22.7025   11.8299 C.ar    1  UNL1        0.0000
    924 C         -10.7252   43.0518    1.1994 C.3     1  UNL1        0.0000
    925 N         -10.6701   42.4530    2.4376 N.3     1  UNL1        0.0000
    926 N          -6.3042   29.2916   10.4418 N.pl3   1  UNL1        0.0000
    927 N          -4.9146   33.7116    7.5650 N.pl3   1  UNL1        0.0000
    928 N          -6.8116   24.9750    9.2119 N.pl3   1  UNL1        0.0000
    929 O          -5.6573   33.9999    4.9979 O.3     1  UNL1        0.0000
    930 O         -16.0811   30.7653    7.8880 O.3     1  UNL1        0.0000
    931 O          -8.8309   26.6324    9.6098 O.3     1  UNL1        0.0000
    932 O         -12.2836   39.0809    3.3001 O.3     1  UNL1        0.0000
    933 O         -11.4473   37.6940    4.8862 O.3     1  UNL1        0.0000
    934 O         -10.3827   26.8763    7.9831 O.3     1  UNL1        0.0000
    935 O          -4.0691   33.6755    3.4203 O.3     1  UNL1        0.0000
    936 O         -16.8921   32.1524    9.4860 O.3     1  UNL1        0.0000
    937 O          -6.7416   33.4206    2.4213 O.3     1  UNL1        0.0000
    938 O         -14.3878   31.2792    9.9864 O.3     1  UNL1        0.0000
    939 O          -5.8028   35.7079    2.8713 O.3     1  UNL1        0.0000
    940 O         -16.1400   29.5546   10.4791 O.3     1  UNL1        0.0000
    941 O         -11.5335   26.3466   10.5738 O.3     1  UNL1        0.0000
    942 O          -9.7651   38.2420    2.8019 O.3     1  UNL1        0.0000
    943 O         -10.5796   28.6081   10.1096 O.3     1  UNL1        0.0000
    944 O         -11.4713   36.4849    2.2844 O.3     1  UNL1        0.0000
    945 O          -9.1623   25.4924   11.8759 O.3     1  UNL1        0.0000
    946 O         -10.9148   40.1656    1.0279 O.2     1  UNL1        0.0000
    947 O          -8.3601   28.2806   11.8707 O.3     1  UNL1        0.0000
    948 O         -13.1507   38.3299    0.9678 O.2     1  UNL1        0.0000
    949 O          -3.6219   35.3551    1.0140 O.2     1  UNL1        0.0000
    950 O         -17.7763   31.3947   11.8018 O.2     1  UNL1        0.0000
    951 O          -4.4175   32.6008    1.0434 O.2     1  UNL1        0.0000
    952 O         -15.5081   33.1771   11.8831 O.2     1  UNL1        0.0000
    953 O          -8.5498   35.8121    2.9224 O.3     1  UNL1        0.0000
    954 O         -13.2518   28.8083    9.9034 O.3     1  UNL1        0.0000
    955 O          -6.0957   34.5870   -0.0104 O.3     1  UNL1        0.0000
    956 O         -10.6634   37.6890   -0.1772 O.3     1  UNL1        0.0000
    957 H          -9.3098   30.7152    8.4343 H       1  UNL1        0.0000
    958 H         -13.1845   25.0527    6.2935 H       1  UNL1        0.0000
    959 H          -8.4432   39.7884    4.9478 H       8  UNL8        0.0000
    960 H          -8.3181   32.2585    6.7176 H       1  UNL1        0.0000
    961 H         -13.0148   32.8986    8.2583 H       1  UNL1        0.0000
    962 H         -16.8122   27.3585    6.4792 H       1  UNL1        0.0000
    963 H         -11.6488   31.0511    9.1775 H       1  UNL1        0.0000
    964 H         -12.0238   34.4407    6.5353 H       1  UNL1        0.0000
    965 H          -7.1578   37.8655    4.0605 H       8  UNL8        0.0000
    966 H         -20.8051   38.0569    4.6471 H      54  UNL54       0.0000
    967 C         -10.1139   33.4391    6.5302 C.ar    1  UNL1        0.0000
    968 C         -11.2167   31.7237    8.4384 C.ar    1  UNL1        0.0000
    969 C          -6.6832   38.5577    4.7546 C.2     8  UNL8        0.0000
    970 C         -14.9334   26.3017    6.4688 C.2     1  UNL1        0.0000
    971 C         -11.4419   33.6252    6.9598 C.ar    1  UNL1        0.0000
    972 C          -9.8947   31.5330    8.0163 C.ar    1  UNL1        0.0000
    973 C          -7.4054   39.6510    5.2484 C.2     8  UNL8        0.0000
    974 C         -14.2163   25.1945    5.9777 C.3     1  UNL1        0.0000
    975 C          -5.3502   38.3553    5.1334 C.3     8  UNL8        0.0000
    976 C         -16.2727   26.5005    6.0829 C.3     1  UNL1        0.0000
    977 C          -9.3411   32.3897    7.0641 C.ar    1  UNL1        0.0000
    978 C         -11.9899   32.7675    7.9145 C.ar    1  UNL1        0.0000
    979 O          -8.3128   34.1604    5.1492 O.3     1  UNL1        0.0000
    980 O         -14.9517   28.2779    7.7924 O.2     1  UNL1        0.0000
    981 O         -13.1132   26.9730    7.8490 O.2     1  UNL1        0.0000
    982 O         -10.2735   35.2589    5.0025 O.3     1  UNL1        0.0000
    983 N          -6.4773   38.7454   27.0012 N.pl3  22  UNL22       0.0000
    984 N          -6.4973   40.5873   28.1677 N.pl3  22  UNL22       0.0000
    985 C          -5.1921   38.9276   27.4890 C.2    22  UNL22       0.0000
    986 C          -5.2067   40.0862   28.2176 C.2    22  UNL22       0.0000
    987 C          -6.7931   43.0391   27.8347 C.3    22  UNL22       0.0000
    988 C          -6.9105   37.6584   26.1188 C.3    22  UNL22       0.0000
    989 C          -7.2537   39.7592   27.4272 C.3    22  UNL22       0.0000
    990 C          -6.9713   41.8492   28.7753 C.3    22  UNL22       0.0000
    991 H          -4.4032   38.2098   27.3016 H      22  UNL22       0.0000
    992 H          -4.4272   40.5758   28.7857 H      22  UNL22       0.0000
    993 H          -5.7409   43.1886   27.5623 H      22  UNL22       0.0000
    994 H          -6.4901   37.8100   25.1158 H      22  UNL22       0.0000
    995 H          -7.3823   42.9084   26.9176 H      22  UNL22       0.0000
    996 H          -6.5419   36.7019   26.5091 H      22  UNL22       0.0000
    997 H          -7.1536   43.9500   28.3335 H      22  UNL22       0.0000
    998 H          -6.4165   41.9692   29.7133 H      22  UNL22       0.0000
    999 H          -8.0068   37.6615   26.0685 H      22  UNL22       0.0000
   1000 H          -8.3141   39.8697   27.2390 H      22  UNL22       0.0000
   1001 H          -8.0301   41.7077   29.0269 H      22  UNL22       0.0000
   1002 TI        -20.5241   24.3883   24.2280 Ti      1  UNL1        0.0000
   1003 TI         -9.6937   27.2696   14.8632 Ti      1  UNL1        0.0000
   1004 TI        -16.4275   20.4521   22.4080 Ti      1  UNL1        0.0000
   1005 TI        -14.9163   29.6143   16.6350 Ti      1  UNL1        0.0000
   1006 TI        -15.9148   31.2926   14.7306 Ti      1  UNL1        0.0000
   1007 TI        -14.5393   20.1978   24.3614 Ti      1  UNL1        0.0000
   1008 TI        -19.5749   22.6525   22.3365 Ti      1  UNL1        0.0000
   1009 TI        -11.6815   27.5721   16.7106 Ti      1  UNL1        0.0000
   1010 H         -20.0223   28.2854   24.0085 H       1  UNL1        0.0000
   1011 H          -8.8849   23.3635   15.1838 H       1  UNL1        0.0000
   1012 H         -24.4840   23.6317   23.8455 H       1  UNL1        0.0000
   1013 H          -6.3115   29.2739   15.0638 H       1  UNL1        0.0000
   1014 H         -13.5636   16.1633   23.9754 H       1  UNL1        0.0000
   1015 H         -19.9734   30.7027   15.0526 H       1  UNL1        0.0000
   1016 H         -15.4204   29.6558   12.8575 H       1  UNL1        0.0000
   1017 H         -11.5692   27.0269   13.1632 H       1  UNL1        0.0000
   1018 H         -14.0293   19.5307   18.8503 H       1  UNL1        0.0000
   1019 H         -16.6397   31.4513   20.2539 H       1  UNL1        0.0000
   1020 H         -23.6476   26.0411   21.9806 H       1  UNL1        0.0000
   1021 H          -6.9389   25.1852   17.1692 H       1  UNL1        0.0000
   1022 H         -21.3465   24.5936   18.6467 H       1  UNL1        0.0000
   1023 H         -19.0149   33.1204   17.0838 H       1  UNL1        0.0000
   1024 H         -15.5226   34.3954   15.5860 H       1  UNL1        0.0000
   1025 H          -9.0427   21.3447   16.3863 H       1  UNL1        0.0000
   1026 H         -12.8236   29.2944   15.2963 H       1  UNL1        0.0000
   1027 H         -17.5082   22.3005   23.7016 H       1  UNL1        0.0000
   1028 H         -10.3045   22.1327   22.7510 H       1  UNL1        0.0000
   1029 H         -11.7856   21.6636   23.4984 H       1  UNL1        0.0000
   1030 H          -9.7304   26.5663   21.6521 H       1  UNL1        0.0000
   1031 H         -10.3001   26.9249   20.0336 H       1  UNL1        0.0000
   1032 H         -10.7933   17.1778   22.5610 H       1  UNL1        0.0000
   1033 H         -12.0725   18.2784   23.0184 H       1  UNL1        0.0000
   1034 C          -9.1156   26.5283   17.7267 C.3     1  UNL1        0.0000
   1035 C         -21.4847   24.6497   21.3809 C.3     1  UNL1        0.0000
   1036 C         -13.8470   19.4414   21.4833 C.3     1  UNL1        0.0000
   1037 C         -16.8524   31.5848   17.5943 C.3     1  UNL1        0.0000
   1038 C          -8.2196   25.9240   18.7219 C.ar    1  UNL1        0.0000
   1039 C         -22.4166   25.2747   20.4039 C.2     1  UNL1        0.0000
   1040 C         -12.9068   18.8271   20.5361 C.ar    1  UNL1        0.0000
   1041 C         -17.7422   32.2316   18.5941 C.2     1  UNL1        0.0000
   1042 C          -8.4684   25.9989   20.1283 C.ar    1  UNL1        0.0000
   1043 C         -22.2002   25.1548   19.0159 C.3     1  UNL1        0.0000
   1044 C         -11.7773   18.0668   20.9891 C.ar    1  UNL1        0.0000
   1045 C         -18.8369   33.0045   18.1492 C.3     1  UNL1        0.0000
   1046 C         -17.4877   32.0608   19.9490 C.2     1  UNL1        0.0000
   1047 C         -13.1545   18.9592   19.1522 C.ar    1  UNL1        0.0000
   1048 C          -7.0859   25.2250   18.2462 C.ar    1  UNL1        0.0000
   1049 C         -23.5168   25.9672   20.9026 C.2     1  UNL1        0.0000
   1050 C          -8.9039   23.4426   13.0398 C.ar    1  UNL1        0.0000
   1051 C         -15.3736   35.2342   13.0648 C.2     1  UNL1        0.0000
   1052 C          -6.4194   29.2057   12.9137 C.ar    1  UNL1        0.0000
   1053 C         -19.7778   30.7481   12.8944 C.2     1  UNL1        0.0000
   1054 C         -14.1695   27.2711   18.5995 C.3     1  UNL1        0.0000
   1055 C         -18.9256   20.1767   20.5177 C.2     1  UNL1        0.0000
   1056 C          -9.0397   24.8974   13.0166 C.3     1  UNL1        0.0000
   1057 C         -15.4663   33.8006   13.0273 C.2     1  UNL1        0.0000
   1058 C          -7.7173   28.5889   12.9606 C.3     1  UNL1        0.0000
   1059 C         -18.3754   31.1625   12.9188 C.2     1  UNL1        0.0000
   1060 C          -8.8645   22.7735   14.2694 C.ar    1  UNL1        0.0000
   1061 C         -20.0113   28.8738   24.9224 C.3     1  UNL1        0.0000
   1062 C          -5.7641   29.4805   14.1477 C.ar    1  UNL1        0.0000
   1063 C         -25.0455   23.4523   24.7609 C.3     1  UNL1        0.0000
   1064 C         -10.3598   22.4080   24.7754 C.ar    1  UNL1        0.0000
   1065 C         -20.4749   30.5177   14.1068 C.3     1  UNL1        0.0000
   1066 C         -13.5220   15.6361   24.9245 C.ar    1  UNL1        0.0000
   1067 C         -15.3598   35.9854   14.2940 C.3     1  UNL1        0.0000
   1068 N         -15.3048   35.3865   15.5322 N.3     1  UNL1        0.0000
   1069 N         -10.9388   22.2251   23.5364 N.pl3   1  UNL1        0.0000
   1070 N          -9.5493   26.6452   20.6596 N.pl3   1  UNL1        0.0000
   1071 N         -11.4463   17.9085   22.3065 N.pl3   1  UNL1        0.0000
   1072 O         -10.2920   26.9334   18.0925 O.3     1  UNL1        0.0000
   1073 O         -20.7157   23.6989   20.9827 O.3     1  UNL1        0.0000
   1074 O         -13.4655   19.5659   22.7044 O.3     1  UNL1        0.0000
   1075 O         -16.9183   32.0145   16.3947 O.3     1  UNL1        0.0000
   1076 O         -16.0819   30.6276   17.9808 O.3     1  UNL1        0.0000
   1077 O         -15.0174   19.8099   21.0778 O.3     1  UNL1        0.0000
   1078 O          -8.7038   26.6091   16.5149 O.3     1  UNL1        0.0000
   1079 O         -21.5267   25.0860   22.5807 O.3     1  UNL1        0.0000
   1080 O         -11.3763   26.3542   15.5159 O.3     1  UNL1        0.0000
   1081 O         -19.0225   24.2128   23.0810 O.3     1  UNL1        0.0000
   1082 O         -10.4375   28.6415   15.9659 O.3     1  UNL1        0.0000
   1083 O         -20.7747   22.4881   23.5737 O.3     1  UNL1        0.0000
   1084 O         -16.1682   19.2802   23.6684 O.3     1  UNL1        0.0000
   1085 O         -14.3997   31.1756   15.8965 O.3     1  UNL1        0.0000
   1086 O         -15.2142   21.5417   23.2042 O.3     1  UNL1        0.0000
   1087 O         -16.1059   29.4185   15.3791 O.3     1  UNL1        0.0000
   1088 O         -13.7969   18.4259   24.9705 O.3     1  UNL1        0.0000
   1089 O         -15.5495   33.0992   14.1225 O.2     1  UNL1        0.0000
   1090 O         -12.9948   21.2141   24.9653 O.3     1  UNL1        0.0000
   1091 O         -17.7854   31.2635   14.0624 O.2     1  UNL1        0.0000
   1092 O          -8.2566   28.2887   14.1086 O.3     1  UNL1        0.0000
   1093 O         -22.4109   24.3283   24.8964 O.2     1  UNL1        0.0000
   1094 O          -9.0522   25.5344   14.1380 O.3     1  UNL1        0.0000
   1095 O         -20.1427   26.1106   24.9777 O.2     1  UNL1        0.0000
   1096 O         -13.1845   28.7457   16.0170 O.3     1  UNL1        0.0000
   1097 O         -17.8864   21.7418   22.9980 O.3     1  UNL1        0.0000
   1098 O         -10.7304   27.5205   13.0842 O.3     1  UNL1        0.0000
   1099 O         -15.2980   30.6226   12.9175 O.3     1  UNL1        0.0000
   1100 H         -13.9444   23.6488   21.5289 H       1  UNL1        0.0000
   1101 H         -17.8191   17.9863   19.3881 H       1  UNL1        0.0000
   1102 H         -13.0779   32.7220   18.0424 H       9  UNL9        0.0000
   1103 H         -12.9528   25.1921   19.8122 H       1  UNL1        0.0000
   1104 H         -17.6495   25.8321   21.3530 H       1  UNL1        0.0000
   1105 H         -21.4468   20.2921   19.5738 H       1  UNL1        0.0000
   1106 H         -16.2835   23.9847   22.2721 H       1  UNL1        0.0000
   1107 H         -16.6585   27.3742   19.6299 H       1  UNL1        0.0000
   1108 H         -11.7924   30.7990   17.1551 H       9  UNL9        0.0000
   1109 H         -25.4398   30.9905   17.7417 H      54  UNL54       0.0000
   1110 C         -14.7485   26.3726   19.6248 C.ar    1  UNL1        0.0000
   1111 C         -15.8513   24.6572   21.5330 C.ar    1  UNL1        0.0000
   1112 C         -11.3178   31.4913   17.8492 C.2     9  UNL9        0.0000
   1113 C         -19.5681   19.2353   19.5634 C.2     1  UNL1        0.0000
   1114 C         -16.0765   26.5588   20.0544 C.ar    1  UNL1        0.0000
   1115 C         -14.5293   24.4666   21.1109 C.ar    1  UNL1        0.0000
   1116 C         -12.0400   32.5846   18.3430 C.2     9  UNL9        0.0000
   1117 C         -18.8509   18.1281   19.0723 C.3     1  UNL1        0.0000
   1118 C          -9.9848   31.2888   18.2280 C.3     9  UNL9        0.0000
   1119 C         -20.9073   19.4341   19.1775 C.3     1  UNL1        0.0000
   1120 C         -13.9757   25.3233   20.1587 C.ar    1  UNL1        0.0000
   1121 C         -16.6246   25.7011   21.0091 C.ar    1  UNL1        0.0000
   1122 O         -12.9474   27.0940   18.2438 O.3     1  UNL1        0.0000
   1123 O         -19.5864   21.2115   20.8870 O.2     1  UNL1        0.0000
   1124 O         -17.7478   19.9066   20.9436 O.2     1  UNL1        0.0000
   1125 O         -14.9081   28.1924   18.0971 O.3     1  UNL1        0.0000
   1126 N         -11.1120   31.6790   40.0958 N.pl3  24  UNL24       0.0000
   1127 N         -11.1320   33.5209   41.2623 N.pl3  24  UNL24       0.0000
   1128 C          -9.8267   31.8612   40.5836 C.2    24  UNL24       0.0000
   1129 C          -9.8414   33.0198   41.3122 C.2    24  UNL24       0.0000
   1130 C         -11.4278   35.9727   40.9293 C.3    24  UNL24       0.0000
   1131 C         -11.5452   30.5920   39.2134 C.3    24  UNL24       0.0000
   1132 C         -11.8883   32.6928   40.5218 C.3    24  UNL24       0.0000
   1133 C         -11.6059   34.7827   41.8699 C.3    24  UNL24       0.0000
   1134 H          -9.0378   31.1434   40.3962 H      24  UNL24       0.0000
   1135 H          -9.0619   33.5094   41.8804 H      24  UNL24       0.0000
   1136 H         -10.3756   36.1222   40.6569 H      24  UNL24       0.0000
   1137 H         -11.1247   30.7435   38.2104 H      24  UNL24       0.0000
   1138 H         -12.0170   35.8419   40.0122 H      24  UNL24       0.0000
   1139 H         -11.1766   29.6355   39.6037 H      24  UNL24       0.0000
   1140 H         -11.7882   36.8835   41.4281 H      24  UNL24       0.0000
   1141 H         -11.0511   34.9027   42.8079 H      24  UNL24       0.0000
   1142 H         -12.6414   30.5950   39.1632 H      24  UNL24       0.0000
   1143 H         -12.9488   32.8032   40.3336 H      24  UNL24       0.0000
   1144 H         -12.6647   34.6413   42.1215 H      24  UNL24       0.0000
   1145 TI        -25.1588   17.3219   37.3226 Ti      1  UNL1        0.0000
   1146 TI        -14.3283   20.2031   27.9578 Ti      1  UNL1        0.0000
   1147 TI        -21.0621   13.3857   35.5026 Ti      1  UNL1        0.0000
   1148 TI        -19.5509   22.5478   29.7296 Ti      1  UNL1        0.0000
   1149 TI        -20.5495   24.2262   27.8252 Ti      1  UNL1        0.0000
   1150 TI        -19.1739   13.1314   37.4560 Ti      1  UNL1        0.0000
   1151 TI        -24.2096   15.5860   35.4311 Ti      1  UNL1        0.0000
   1152 TI        -16.3161   20.5057   29.8052 Ti      1  UNL1        0.0000
   1153 H         -24.6569   21.2190   37.1031 H      10  UNL10       0.0000
   1154 H         -13.5195   16.2971   28.2785 H       1  UNL1        0.0000
   1155 H         -29.1187   16.5653   36.9401 H      11  UNL11       0.0000
   1156 H         -10.9462   22.2074   28.1584 H       1  UNL1        0.0000
   1157 H         -18.1983    9.0968   37.0700 H       5  UNL5        0.0000
   1158 H         -24.6080   23.6363   28.1472 H       1  UNL1        0.0000
   1159 H         -20.0550   22.5894   25.9521 H       1  UNL1        0.0000
   1160 H         -16.2038   19.9604   26.2578 H       1  UNL1        0.0000
   1161 H         -18.6640   12.4643   31.9449 H       1  UNL1        0.0000
   1162 H         -21.2744   24.3849   33.3485 H       1  UNL1        0.0000
   1163 H         -28.2822   18.9746   35.0752 H       1  UNL1        0.0000
   1164 H         -11.5736   18.1188   30.2638 H       1  UNL1        0.0000
   1165 H         -25.9811   17.5272   31.7414 H       1  UNL1        0.0000
   1166 H         -23.6496   26.0540   30.1784 H       1  UNL1        0.0000
   1167 H         -20.1572   27.3290   28.6806 H       1  UNL1        0.0000
   1168 H         -13.6774   14.2782   29.4809 H       1  UNL1        0.0000
   1169 H         -17.4583   22.2280   28.3909 H       1  UNL1        0.0000
   1170 H         -22.1428   15.2341   36.7962 H       1  UNL1        0.0000
   1171 H         -14.9392   15.0662   35.8456 H      12  UNL12       0.0000
   1172 H         -16.4203   14.5972   36.5930 H      12  UNL12       0.0000
   1173 H         -14.3650   19.4999   34.7467 H       1  UNL1        0.0000
   1174 H         -14.9348   19.8584   33.1282 H       1  UNL1        0.0000
   1175 H         -15.4280   10.1114   35.6556 H       1  UNL1        0.0000
   1176 H         -16.7071   11.2120   36.1130 H       1  UNL1        0.0000
   1177 C         -13.7503   19.4619   30.8213 C.3     1  UNL1        0.0000
   1178 C         -26.1193   17.5833   34.4755 C.3     1  UNL1        0.0000
   1179 C         -18.4816   12.3750   34.5779 C.3     1  UNL1        0.0000
   1180 C         -21.4870   24.5184   30.6889 C.3     1  UNL1        0.0000
   1181 C         -12.8543   18.8576   31.8165 C.ar    1  UNL1        0.0000
   1182 C         -27.0512   18.2083   33.4985 C.2     1  UNL1        0.0000
   1183 C         -17.5414   11.7607   33.6307 C.ar    1  UNL1        0.0000
   1184 C         -22.3768   25.1652   31.6887 C.2     1  UNL1        0.0000
   1185 C         -13.1030   18.9325   33.2229 C.ar    1  UNL1        0.0000
   1186 C         -26.8348   18.0883   32.1105 C.3     1  UNL1        0.0000
   1187 C         -16.4119   11.0004   34.0838 C.ar    1  UNL1        0.0000
   1188 C         -23.4716   25.9381   31.2438 C.3     1  UNL1        0.0000
   1189 C         -22.1224   24.9944   33.0436 C.2     1  UNL1        0.0000
   1190 C         -17.7891   11.8928   32.2468 C.ar    1  UNL1        0.0000
   1191 C         -11.7206   18.1586   31.3408 C.ar    1  UNL1        0.0000
   1192 C         -28.1514   18.9007   33.9972 C.2     1  UNL1        0.0000
   1193 C         -13.5385   16.3761   26.1344 C.ar    1  UNL1        0.0000
   1194 C         -20.0082   28.1677   26.1594 C.2     1  UNL1        0.0000
   1195 C         -11.0541   22.1393   26.0084 C.ar    1  UNL1        0.0000
   1196 C         -24.4124   23.6817   25.9890 C.2     1  UNL1        0.0000
   1197 C         -18.8042   20.2047   31.6942 C.3     1  UNL1        0.0000
   1198 C         -23.5603   13.1103   33.6123 C.2     1  UNL1        0.0000
   1199 C         -13.6744   17.8310   26.1112 C.3     1  UNL1        0.0000
   1200 C         -20.1010   26.7342   26.1219 C.2     1  UNL1        0.0000
   1201 C         -12.3519   21.5224   26.0552 C.3     1  UNL1        0.0000
   1202 C         -23.0101   24.0960   26.0134 C.2     1  UNL1        0.0000
   1203 C         -13.4992   15.7070   27.3640 C.ar    1  UNL1        0.0000
   1204 C         -24.6460   21.8074   38.0170 C.3    25  UNL25       0.0000
   1205 C         -10.3988   22.4141   27.2423 C.ar    1  UNL1        0.0000
   1206 C         -29.6802   16.3859   37.8555 C.3    26  UNL26       0.0000
   1207 C         -14.9944   15.3415   37.8700 C.2    12  UNL12       0.0000
   1208 C         -25.1096   23.4513   27.2014 C.3     1  UNL1        0.0000
   1209 C         -18.1567    8.5697   38.0191 C.2     5  UNL5        0.0000
   1210 C         -19.9945   28.9189   27.3886 C.3     1  UNL1        0.0000
   1211 N         -19.9394   28.3201   28.6268 N.3     1  UNL1        0.0000
   1212 N         -15.5734   15.1587   36.6310 N.pl3  12  UNL12       0.0000
   1213 N         -14.1839   19.5787   33.7542 N.pl3   1  UNL1        0.0000
   1214 N         -16.0809   10.8421   35.4011 N.pl3   1  UNL1        0.0000
   1215 O         -14.9266   19.8670   31.1871 O.3     1  UNL1        0.0000
   1216 O         -25.3503   16.6324   34.0773 O.3     1  UNL1        0.0000
   1217 O         -18.1001   12.4995   35.7990 O.3     1  UNL1        0.0000
   1218 O         -21.5529   24.9480   29.4893 O.3     1  UNL1        0.0000
   1219 O         -20.7166   23.5611   31.0754 O.3     1  UNL1        0.0000
   1220 O         -19.6520   12.7434   34.1724 O.3     1  UNL1        0.0000
   1221 O         -13.3384   19.5426   29.6096 O.3     1  UNL1        0.0000
   1222 O         -26.1614   18.0195   35.6753 O.3     1  UNL1        0.0000
   1223 O         -16.0109   19.2878   28.6105 O.3     1  UNL1        0.0000
   1224 O         -23.6571   17.1464   36.1756 O.3     1  UNL1        0.0000
   1225 O         -15.0721   21.5751   29.0605 O.3     1  UNL1        0.0000
   1226 O         -25.4093   15.4217   36.6683 O.3     1  UNL1        0.0000
   1227 O         -20.8028   12.2137   36.7630 O.3     1  UNL1        0.0000
   1228 O         -19.0344   24.1092   28.9911 O.3     1  UNL1        0.0000
   1229 O         -19.8489   14.4752   36.2988 O.3     1  UNL1        0.0000
   1230 O         -20.7406   22.3520   28.4737 O.3     1  UNL1        0.0000
   1231 O         -18.4316   11.3595   38.0651 O.3     1  UNL1        0.0000
   1232 O         -20.1841   26.0328   27.2171 O.2     1  UNL1        0.0000
   1233 O         -17.6294   14.1477   38.0599 O.3     1  UNL1        0.0000
   1234 O         -22.4200   24.1970   27.1570 O.2     1  UNL1        0.0000
   1235 O         -12.8912   21.2222   27.2032 O.3     1  UNL1        0.0000
   1236 O         -27.0456   17.2619   37.9910 O.3     1  UNL1        0.0000
   1237 O         -13.6868   18.4679   27.2326 O.3     1  UNL1        0.0000
   1238 O         -24.7774   19.0442   38.0723 O.3     1  UNL1        0.0000
   1239 O         -17.8191   21.6792   29.1116 O.3     1  UNL1        0.0000
   1240 O         -22.5211   14.6754   36.0926 O.3     1  UNL1        0.0000
   1241 O         -15.3650   20.4541   26.1788 O.3     1  UNL1        0.0000
   1242 O         -19.9327   23.5561   26.0121 O.3     1  UNL1        0.0000
   1243 H         -18.5791   16.5823   34.6235 H       1  UNL1        0.0000
   1244 H         -22.4538   10.9199   32.4828 H       1  UNL1        0.0000
   1245 H         -17.7125   25.6555   31.1370 H      13  UNL13       0.0000
   1246 H         -17.5874   18.1257   32.9068 H       1  UNL1        0.0000
   1247 H         -22.2841   18.7657   34.4476 H       1  UNL1        0.0000
   1248 H         -26.0815   13.2256   32.6685 H       1  UNL1        0.0000
   1249 H         -20.9181   16.9182   35.3667 H       1  UNL1        0.0000
   1250 H         -21.2931   20.3078   32.7245 H       1  UNL1        0.0000
   1251 H         -16.4271   23.7326   30.2497 H      13  UNL13       0.0000
   1252 H         -30.0744   23.9240   30.8363 H      54  UNL54       0.0000
   1253 C         -19.3832   19.3062   32.7195 C.ar    1  UNL1        0.0000
   1254 C         -20.4860   17.5908   34.6276 C.ar    1  UNL1        0.0000
   1255 C         -15.9525   24.4248   30.9438 C.2    13  UNL13       0.0000
   1256 C         -24.2027   12.1688   32.6580 C.2     1  UNL1        0.0000
   1257 C         -20.7112   19.4924   33.1490 C.ar    1  UNL1        0.0000
   1258 C         -19.1640   17.4002   34.2056 C.ar    1  UNL1        0.0000
   1259 C         -16.6747   25.5182   31.4376 C.2    13  UNL13       0.0000
   1260 C         -23.4856   11.0616   32.1669 C.3     1  UNL1        0.0000
   1261 C         -14.6195   24.2224   31.3226 C.3    13  UNL13       0.0000
   1262 C         -25.5419   12.3677   32.2721 C.3     1  UNL1        0.0000
   1263 C         -18.6104   18.2568   33.2533 C.ar    1  UNL1        0.0000
   1264 C         -21.2592   18.6346   34.1038 C.ar    1  UNL1        0.0000
   1265 O         -17.5821   20.0275   31.3384 O.3     1  UNL1        0.0000
   1266 O         -24.2210   14.1450   33.9816 O.2     1  UNL1        0.0000
   1267 O         -22.3825   12.8401   34.0382 O.2     1  UNL1        0.0000
   1268 O         -19.5428   21.1260   31.1917 O.3     1  UNL1        0.0000
   1269 N         -15.7466   24.6125   53.1905 N.pl3  28  UNL28       0.0000
   1270 N         -15.7666   26.4544   54.3569 N.pl3  28  UNL28       0.0000
   1271 C         -14.4614   24.7947   53.6783 C.2    28  UNL28       0.0000
   1272 C         -14.4760   25.9534   54.4068 C.2    28  UNL28       0.0000
   1273 C         -16.0624   28.9062   54.0239 C.3    28  UNL28       0.0000
   1274 C         -16.1798   23.5255   52.3080 C.3    28  UNL28       0.0000
   1275 C         -16.5230   25.6264   53.6164 C.3    28  UNL28       0.0000
   1276 C         -16.2406   27.7163   54.9645 C.3    28  UNL28       0.0000
   1277 H         -13.6724   24.0770   53.4908 H      28  UNL28       0.0000
   1278 H         -13.6965   26.4429   54.9750 H      28  UNL28       0.0000
   1279 H         -15.0102   29.0557   53.7515 H      28  UNL28       0.0000
   1280 H         -15.7594   23.6771   51.3050 H      28  UNL28       0.0000
   1281 H         -16.6516   28.7755   53.1068 H      28  UNL28       0.0000
   1282 H         -15.8112   22.5691   52.6983 H      28  UNL28       0.0000
   1283 H         -16.4229   29.8171   54.5227 H      28  UNL28       0.0000
   1284 H         -15.6857   27.8363   55.9025 H      28  UNL28       0.0000
   1285 H         -17.2761   23.5286   52.2578 H      28  UNL28       0.0000
   1286 H         -17.5834   25.7368   53.4282 H      28  UNL28       0.0000
   1287 H         -17.2993   27.5749   55.2161 H      28  UNL28       0.0000
   1288 TI         13.1440    1.6725   11.3360 Ti      1  UNL1        0.0000
   1289 TI         23.9745    4.5537    1.9712 Ti      1  UNL1        0.0000
   1290 TI         17.2407   -2.2637    9.5160 Ti      1  UNL1        0.0000
   1291 TI         18.7519    6.8984    3.7430 Ti      1  UNL1        0.0000
   1292 TI         17.7533    8.5767    1.8386 Ti      1  UNL1        0.0000
   1293 TI         19.1289   -2.5180   11.4694 Ti      1  UNL1        0.0000
   1294 TI         14.0932   -0.0634    9.4445 Ti      1  UNL1        0.0000
   1295 TI         21.9867    4.8563    3.8186 Ti      1  UNL1        0.0000
   1296 H          13.6459    5.5696   11.1165 H       1  UNL1        0.0000
   1297 H          24.7833    0.6477    2.2918 H       1  UNL1        0.0000
   1298 H           9.1841    0.9159   10.9535 H       1  UNL1        0.0000
   1299 H          27.3566    6.5580    2.1718 H       1  UNL1        0.0000
   1300 H          20.1045   -6.5526   11.0834 H       1  UNL1        0.0000
   1301 H          13.6948    7.9868    2.1606 H       1  UNL1        0.0000
   1302 H          18.2478    6.9399   -0.0345 H       1  UNL1        0.0000
   1303 H          22.0989    4.3110    0.2712 H       1  UNL1        0.0000
   1304 H          19.6388   -3.1852    5.9583 H       1  UNL1        0.0000
   1305 H          17.0284    8.7355    7.3619 H       1  UNL1        0.0000
   1306 H          10.0206    3.3252    9.0886 H       1  UNL1        0.0000
   1307 H          26.7292    2.4694    4.2772 H       1  UNL1        0.0000
   1308 H          12.3217    1.8778    5.7547 H       1  UNL1        0.0000
   1309 H          14.6532   10.4046    4.1918 H       1  UNL1        0.0000
   1310 H          18.1455   11.6796    2.6940 H       1  UNL1        0.0000
   1311 H          24.6254   -1.3712    3.4943 H      54  UNL54       0.0000
   1312 H          20.8445    6.5786    2.4043 H       1  UNL1        0.0000
   1313 H          16.1600   -0.4153   10.8096 H       1  UNL1        0.0000
   1314 H          23.3636   -0.5832    9.8590 H       1  UNL1        0.0000
   1315 H          21.8825   -1.0523   10.6064 H       1  UNL1        0.0000
   1316 H          23.9378    3.8504    8.7601 H       1  UNL1        0.0000
   1317 H          23.3680    4.2090    7.1416 H       1  UNL1        0.0000
   1318 H          22.8748   -5.5380    9.6690 H       1  UNL1        0.0000
   1319 H          21.5957   -4.4374   10.1264 H       1  UNL1        0.0000
   1320 C          24.5525    3.8125    4.8347 C.3     1  UNL1        0.0000
   1321 C          12.1835    1.9339    8.4889 C.3     1  UNL1        0.0000
   1322 C          19.8212   -3.2744    8.5913 C.3     1  UNL1        0.0000
   1323 C          16.8158    8.8689    4.7023 C.3     1  UNL1        0.0000
   1324 C          25.4485    3.2082    5.8299 C.ar    1  UNL1        0.0000
   1325 C          11.2515    2.5589    7.5119 C.ar    1  UNL1        0.0000
   1326 C          20.7614   -3.8888    7.6441 C.2     1  UNL1        0.0000
   1327 C          15.9259    9.5157    5.7021 C.ar    1  UNL1        0.0000
   1328 C          25.1998    3.2831    7.2363 C.ar    1  UNL1        0.0000
   1329 C          11.4679    2.4389    6.1239 C.ar    1  UNL1        0.0000
   1330 C          21.8908   -4.6491    8.0971 C.2     1  UNL1        0.0000
   1331 C          14.8312   10.2887    5.2572 C.ar    1  UNL1        0.0000
   1332 C          16.1804    9.3450    7.0570 C.ar    1  UNL1        0.0000
   1333 C          20.5137   -3.7566    6.2602 C.3     1  UNL1        0.0000
   1334 C          26.5822    2.5092    5.3542 C.ar    1  UNL1        0.0000
   1335 C          10.1514    3.2513    8.0106 C.ar    1  UNL1        0.0000
   1336 C          24.7643    0.7267    0.1477 C.2     1  UNL1        0.0000
   1337 C          18.2946   12.5183    0.1728 C.2     1  UNL1        0.0000
   1338 C          27.2487    6.4898    0.0217 C.2     1  UNL1        0.0000
   1339 C          13.8904    8.0323    0.0024 C.2     1  UNL1        0.0000
   1340 C          19.4986    4.5553    5.7075 C.3     1  UNL1        0.0000
   1341 C          14.7425   -2.5391    7.6257 C.2     1  UNL1        0.0000
   1342 C          24.6284    2.1816    0.1245 C.2     1  UNL1        0.0000
   1343 C          18.2018   11.0848    0.1353 C.2     1  UNL1        0.0000
   1344 C          25.9509    5.8730    0.0686 C.2     1  UNL1        0.0000
   1345 C          15.2927    8.4466    0.0268 C.2     1  UNL1        0.0000
   1346 C          24.8036    0.0576    1.3774 C.3     1  UNL1        0.0000
   1347 C          13.6568    6.1580   12.0304 C.ar    1  UNL1        0.0000
   1348 C          27.9040    6.7646    1.2557 C.2     1  UNL1        0.0000
   1349 C           8.6226    0.7365   11.8689 C.ar    1  UNL1        0.0000
   1350 C          23.3084   -0.3079   11.8834 C.ar    1  UNL1        0.0000
   1351 C          13.1932    7.8019    1.2148 C.2     1  UNL1        0.0000
   1352 C          20.1461   -7.0797   12.0325 C.3     1  UNL1        0.0000
   1353 C          18.3083   13.2695    1.4020 C.2     1  UNL1        0.0000
   1354 N          18.3634   12.6707    2.6402 N.pl3   1  UNL1        0.0000
   1355 N          22.7293   -0.4907   10.6444 N.pl3   1  UNL1        0.0000
   1356 N          24.1189    3.9293    7.7676 N.pl3   1  UNL1        0.0000
   1357 N          22.2218   -4.8073    9.4145 N.pl3   1  UNL1        0.0000
   1358 O          23.3762    4.2176    5.2005 O.3     1  UNL1        0.0000
   1359 O          12.9524    0.9830    8.0907 O.3     1  UNL1        0.0000
   1360 O          20.2026   -3.1499    9.8124 O.3     1  UNL1        0.0000
   1361 O          16.7499    9.2986    3.5027 O.3     1  UNL1        0.0000
   1362 O          17.5862    7.9117    5.0888 O.3     1  UNL1        0.0000
   1363 O          18.6508   -2.9060    8.1857 O.3     1  UNL1        0.0000
   1364 O          24.9644    3.8932    3.6229 O.3     1  UNL1        0.0000
   1365 O          12.1414    2.3701    9.6886 O.3     1  UNL1        0.0000
   1366 O          22.2919    3.6384    2.6239 O.3     1  UNL1        0.0000
   1367 O          14.6457    1.4970   10.1890 O.3     1  UNL1        0.0000
   1368 O          23.2307    5.9256    3.0739 O.3     1  UNL1        0.0000
   1369 O          12.8935   -0.2277   10.6817 O.3     1  UNL1        0.0000
   1370 O          17.5000   -3.4357   10.7764 O.3     1  UNL1        0.0000
   1371 O          19.2684    8.4597    3.0045 O.3     1  UNL1        0.0000
   1372 O          18.4539   -1.1742   10.3122 O.3     1  UNL1        0.0000
   1373 O          17.5622    6.7026    2.4870 O.3     1  UNL1        0.0000
   1374 O          19.8712   -4.2899   12.0785 O.2     1  UNL1        0.0000
   1375 O          18.1187   10.3834    1.2305 O.2     1  UNL1        0.0000
   1376 O          20.6734   -1.5017   12.0733 O.3     1  UNL1        0.0000
   1377 O          15.8828    8.5476    1.1704 O.2     1  UNL1        0.0000
   1378 O          25.4115    5.5728    1.2166 O.2     1  UNL1        0.0000
   1379 O          11.2572    1.6124   12.0044 O.3     1  UNL1        0.0000
   1380 O          24.6160    2.8185    1.2460 O.2     1  UNL1        0.0000
   1381 O          13.5254    3.3948   12.0857 O.3     1  UNL1        0.0000
   1382 O          20.4837    6.0298    3.1250 O.3     1  UNL1        0.0000
   1383 O          15.7817   -0.9740   10.1060 O.3     1  UNL1        0.0000
   1384 O          22.9378    4.8047    0.1922 O.3     1  UNL1        0.0000
   1385 O          18.3701    7.9067    0.0255 O.3     1  UNL1        0.0000
   1386 H          19.7237    0.9329    8.6369 H       1  UNL1        0.0000
   1387 H          15.8490   -4.7296    6.4961 H       1  UNL1        0.0000
   1388 H          20.5902   10.0061    5.1504 H       1  UNL1        0.0000
   1389 H          20.7154    2.4762    6.9202 H       1  UNL1        0.0000
   1390 H          16.0187    3.1163    8.4609 H       1  UNL1        0.0000
   1391 H          12.2213   -2.4238    6.6818 H       1  UNL1        0.0000
   1392 H          17.3847    1.2688    9.3801 H       1  UNL1        0.0000
   1393 H          17.0097    4.6584    6.7379 H       1  UNL1        0.0000
   1394 H          21.8757    8.0832    4.2631 H       1  UNL1        0.0000
   1395 H           8.2284    8.2746    4.8497 H       1  UNL1        0.0000
   1396 C          18.9196    3.6568    6.7328 C.ar    1  UNL1        0.0000
   1397 C          17.8168    1.9414    8.6410 C.ar    1  UNL1        0.0000
   1398 C          22.3503    8.7754    4.9572 C.ar    1  UNL1        0.0000
   1399 C          14.1001   -3.4806    6.6714 C.2     1  UNL1        0.0000
   1400 C          17.5916    3.8429    7.1624 C.ar    1  UNL1        0.0000
   1401 C          19.1388    1.7508    8.2189 C.ar    1  UNL1        0.0000
   1402 C          21.6281    9.8688    5.4510 C.ar    1  UNL1        0.0000
   1403 C          14.8172   -4.5878    6.1803 C.3     1  UNL1        0.0000
   1404 C          23.6833    8.5730    5.3360 C.ar    1  UNL1        0.0000
   1405 C          12.7608   -3.2818    6.2855 C.3     1  UNL1        0.0000
   1406 C          19.6924    2.6074    7.2667 C.ar    1  UNL1        0.0000
   1407 C          17.0436    2.9852    8.1171 C.ar    1  UNL1        0.0000
   1408 O          20.7207    4.3781    5.3518 O.3     1  UNL1        0.0000
   1409 O          14.0818   -1.5044    7.9950 O.2     1  UNL1        0.0000
   1410 O          15.9203   -2.8093    8.0516 O.2     1  UNL1        0.0000
   1411 O          18.7600    5.4766    5.2051 O.3     1  UNL1        0.0000
   1412 N          22.5562    8.9631   27.2038 N.pl3  30  UNL30       0.0000
   1413 N          22.5362   10.8050   28.3703 N.pl3  30  UNL30       0.0000
   1414 C          23.8414    9.1453   27.6916 C.2    30  UNL30       0.0000
   1415 C          23.8268   10.3040   28.4202 C.2    30  UNL30       0.0000
   1416 C          22.2404   13.2568   28.0373 C.3    30  UNL30       0.0000
   1417 C          22.1230    7.8761   26.3214 C.3    30  UNL30       0.0000
   1418 C          21.7798    9.9770   27.6298 C.3    30  UNL30       0.0000
   1419 C          22.0622   12.0669   28.9779 C.3    30  UNL30       0.0000
   1420 H          24.6303    8.4275   27.5042 H      30  UNL30       0.0000
   1421 H          24.6063   10.7935   28.9884 H      30  UNL30       0.0000
   1422 H          23.2926   13.4063   27.7649 H      30  UNL30       0.0000
   1423 H          22.5434    8.0277   25.3184 H      30  UNL30       0.0000
   1424 H          21.6512   13.1261   27.1202 H      30  UNL30       0.0000
   1425 H          22.4916    6.9196   26.7117 H      30  UNL30       0.0000
   1426 H          21.8799   14.1677   28.5361 H      30  UNL30       0.0000
   1427 H          22.6170   12.1869   29.9159 H      30  UNL30       0.0000
   1428 H          21.0267    7.8792   26.2711 H      30  UNL30       0.0000
   1429 H          20.7194   10.0874   27.4416 H      30  UNL30       0.0000
   1430 H          21.0034   11.9255   29.2295 H      30  UNL30       0.0000
   1431 TI          8.5094   -5.3939   24.4306 Ti      1  UNL1        0.0000
   1432 TI         19.3398   -2.5127   15.0658 Ti      1  UNL1        0.0000
   1433 TI         12.6060   -9.3301   22.6106 Ti      1  UNL1        0.0000
   1434 TI         14.1172   -0.1680   16.8376 Ti      1  UNL1        0.0000
   1435 TI         13.1187    1.5103   14.9332 Ti      1  UNL1        0.0000
   1436 TI         14.4942   -9.5845   24.5640 Ti      1  UNL1        0.0000
   1437 TI          9.4585   -7.1298   22.5391 Ti      1  UNL1        0.0000
   1438 TI         17.3520   -2.2102   16.9132 Ti      1  UNL1        0.0000
   1439 H           9.0112   -1.4969   24.2111 H       1  UNL1        0.0000
   1440 H          20.1486   -6.4188   15.3865 H       1  UNL1        0.0000
   1441 H           4.5495   -6.1506   24.0481 H       1  UNL1        0.0000
   1442 H          22.7220   -0.5084   15.2664 H       1  UNL1        0.0000
   1443 H          15.4698  -13.6190   24.1780 H       1  UNL1        0.0000
   1444 H           9.0601    0.9204   15.2552 H       1  UNL1        0.0000
   1445 H          13.6131   -0.1265   13.0601 H       1  UNL1        0.0000
   1446 H          17.4643   -2.7554   13.3658 H       1  UNL1        0.0000
   1447 H          15.0041  -10.2516   19.0529 H       1  UNL1        0.0000
   1448 H          12.3938    1.6690   20.4565 H       1  UNL1        0.0000
   1449 H           5.3859   -3.7412   22.1832 H       1  UNL1        0.0000
   1450 H          22.0946   -4.5971   17.3718 H       1  UNL1        0.0000
   1451 H           7.6870   -5.1886   18.8494 H       1  UNL1        0.0000
   1452 H          10.0186    3.3382   17.2864 H       1  UNL1        0.0000
   1453 H          13.5109    4.6131   15.7886 H       1  UNL1        0.0000
   1454 H          19.9908   -8.4376   16.5889 H      54  UNL54       0.0000
   1455 H          16.2099   -0.4879   15.4989 H       1  UNL1        0.0000
   1456 H          11.5253   -7.4817   23.9042 H       1  UNL1        0.0000
   1457 H          18.7290   -7.6496   22.9536 H       1  UNL1        0.0000
   1458 H          17.2479   -8.1187   23.7010 H       1  UNL1        0.0000
   1459 H          19.3031   -3.2160   21.8547 H       1  UNL1        0.0000
   1460 H          18.7334   -2.8574   20.2362 H       1  UNL1        0.0000
   1461 H          18.2402  -12.6045   22.7636 H       1  UNL1        0.0000
   1462 H          16.9610  -11.5039   23.2210 H       1  UNL1        0.0000
   1463 C          19.9179   -3.2540   17.9293 C.3     1  UNL1        0.0000
   1464 C           7.5488   -5.1326   21.5835 C.3     1  UNL1        0.0000
   1465 C          15.1865  -10.3408   21.6859 C.3     1  UNL1        0.0000
   1466 C          12.1811    1.8025   17.7969 C.3     1  UNL1        0.0000
   1467 C          20.8139   -3.8583   18.9245 C.ar    1  UNL1        0.0000
   1468 C           6.6169   -4.5075   20.6065 C.ar    1  UNL1        0.0000
   1469 C          16.1267  -10.9552   20.7387 C.2     1  UNL1        0.0000
   1470 C          11.2913    2.4493   18.7967 C.ar    1  UNL1        0.0000
   1471 C          20.5651   -3.7834   20.3309 C.ar    1  UNL1        0.0000
   1472 C           6.8333   -4.6275   19.2185 C.ar    1  UNL1        0.0000
   1473 C          17.2562  -11.7155   21.1917 C.2     1  UNL1        0.0000
   1474 C          10.1966    3.2223   18.3518 C.ar    1  UNL1        0.0000
   1475 C          11.5458    2.2785   20.1516 C.ar    1  UNL1        0.0000
   1476 C          15.8790  -10.8231   19.3548 C.3     1  UNL1        0.0000
   1477 C          21.9476   -4.5573   18.4488 C.ar    1  UNL1        0.0000
   1478 C           5.5167   -3.8151   21.1052 C.ar    1  UNL1        0.0000
   1479 C          20.1296   -6.3397   13.2424 C.2     1  UNL1        0.0000
   1480 C          13.6599    5.4519   13.2674 C.ar    1  UNL1        0.0000
   1481 C          22.6141   -0.5766   13.1164 C.ar    1  UNL1        0.0000
   1482 C           9.2557    0.9658   13.0970 C.ar    1  UNL1        0.0000
   1483 C          14.8639   -2.5112   18.8022 C.3     1  UNL1        0.0000
   1484 C          10.1079   -9.6056   20.7203 C.2     1  UNL1        0.0000
   1485 C          19.9938   -4.8849   13.2192 C.2     1  UNL1        0.0000
   1486 C          13.5672    4.0184   13.2299 C.3     1  UNL1        0.0000
   1487 C          21.3162   -1.1934   13.1632 C.3     1  UNL1        0.0000
   1488 C          10.6580    1.3802   13.1214 C.3     1  UNL1        0.0000
   1489 C          20.1690   -7.0088   14.4720 C.3     1  UNL1        0.0000
   1490 C           9.0222   -0.9085   25.1250 C.ar    1  UNL1        0.0000
   1491 C          23.2694   -0.3018   14.3503 C.ar    1  UNL1        0.0000
   1492 C           3.9880   -6.3299   24.9635 C.ar    1  UNL1        0.0000
   1493 C          18.6737   -7.3743   24.9780 C.ar    1  UNL1        0.0000
   1494 C           8.5585    0.7354   14.3094 C.ar    1  UNL1        0.0000
   1495 C          15.5115  -14.1462   25.1271 C.3     1  UNL1        0.0000
   1496 C          13.6737    6.2031   14.4966 C.ar    1  UNL1        0.0000
   1497 N          13.7287    5.6042   15.7348 N.pl3   1  UNL1        0.0000
   1498 N          18.0947   -7.5571   23.7390 N.pl3   1  UNL1        0.0000
   1499 N          19.4842   -3.1371   20.8622 N.pl3   1  UNL1        0.0000
   1500 N          17.5872  -11.8737   22.5091 N.pl3   1  UNL1        0.0000
   1501 O          18.7415   -2.8489   18.2951 O.3     1  UNL1        0.0000
   1502 O           8.3178   -6.0834   21.1853 O.3     1  UNL1        0.0000
   1503 O          15.5680  -10.2164   22.9070 O.3     1  UNL1        0.0000
   1504 O          12.1152    2.2322   16.5973 O.3     1  UNL1        0.0000
   1505 O          12.9516    0.8453   18.1834 O.3     1  UNL1        0.0000
   1506 O          14.0161   -9.9724   21.2804 O.3     1  UNL1        0.0000
   1507 O          20.3297   -3.1732   16.7175 O.3     1  UNL1        0.0000
   1508 O           7.5068   -4.6963   22.7833 O.3     1  UNL1        0.0000
   1509 O          17.6572   -3.4281   15.7185 O.3     1  UNL1        0.0000
   1510 O          10.0110   -5.5695   23.2836 O.3     1  UNL1        0.0000
   1511 O          18.5960   -1.1408   16.1685 O.3     1  UNL1        0.0000
   1512 O           8.2588   -7.2942   23.7763 O.3     1  UNL1        0.0000
   1513 O          12.8653  -10.5021   23.8710 O.3     1  UNL1        0.0000
   1514 O          14.6338    1.3933   16.0991 O.3     1  UNL1        0.0000
   1515 O          13.8193   -8.2406   23.4068 O.3     1  UNL1        0.0000
   1516 O          12.9275   -0.3638   15.5817 O.3     1  UNL1        0.0000
   1517 O          15.2366  -11.3563   25.1731 O.2     1  UNL1        0.0000
   1518 O          13.4840    3.3169   14.3251 O.3     1  UNL1        0.0000
   1519 O          16.0387   -8.5682   25.1679 O.3     1  UNL1        0.0000
   1520 O          11.2481    1.4812   14.2650 O.3     1  UNL1        0.0000
   1521 O          20.7769   -1.4936   14.3112 O.3     1  UNL1        0.0000
   1522 O           6.6226   -5.4540   25.0990 O.3     1  UNL1        0.0000
   1523 O          19.9813   -4.2479   14.3406 O.2     1  UNL1        0.0000
   1524 O           8.8908   -3.6716   25.1803 O.3     1  UNL1        0.0000
   1525 O          15.8490   -1.0366   16.2196 O.3     1  UNL1        0.0000
   1526 O          11.1471   -8.0404   23.2006 O.3     1  UNL1        0.0000
   1527 O          18.3031   -2.2617   13.2868 O.3     1  UNL1        0.0000
   1528 O          13.7355    0.8403   13.1201 O.3     1  UNL1        0.0000
   1529 H          15.0891   -6.1335   21.7315 H       1  UNL1        0.0000
   1530 H          11.2144  -11.7960   19.5908 H       1  UNL1        0.0000
   1531 H          15.9556    2.9397   18.2450 H       1  UNL1        0.0000
   1532 H          16.0807   -4.5902   20.0148 H       1  UNL1        0.0000
   1533 H          11.3840   -3.9502   21.5556 H       1  UNL1        0.0000
   1534 H           7.5867   -9.4902   19.7765 H       1  UNL1        0.0000
   1535 H          12.7500   -5.7976   22.4747 H       1  UNL1        0.0000
   1536 H          12.3750   -2.4081   19.8325 H       1  UNL1        0.0000
   1537 H          17.2411    1.0167   17.3577 H       1  UNL1        0.0000
   1538 H           3.5937    1.2082   17.9443 H       1  UNL1        0.0000
   1539 C          14.2850   -3.4097   19.8275 C.ar    1  UNL1        0.0000
   1540 C          13.1822   -5.1251   21.7356 C.ar    1  UNL1        0.0000
   1541 C          17.7157    1.7090   18.0518 C.ar    1  UNL1        0.0000
   1542 C           9.4654  -10.5470   19.7660 C.2     1  UNL1        0.0000
   1543 C          12.9570   -3.2235   20.2570 C.ar    1  UNL1        0.0000
   1544 C          14.5042   -5.3157   21.3136 C.ar    1  UNL1        0.0000
   1545 C          16.9935    2.8023   18.5456 C.ar    1  UNL1        0.0000
   1546 C          10.1826  -11.6542   19.2749 C.3     1  UNL1        0.0000
   1547 C          19.0487    1.5066   18.4306 C.ar    1  UNL1        0.0000
   1548 C           8.1262  -10.3482   19.3801 C.3     1  UNL1        0.0000
   1549 C          15.0578   -4.4590   20.3613 C.ar    1  UNL1        0.0000
   1550 C          12.4089   -4.0812   21.2118 C.ar    1  UNL1        0.0000
   1551 O          16.0861   -2.6883   18.4464 O.3     1  UNL1        0.0000
   1552 O           9.4471   -8.5708   21.0896 O.2     1  UNL1        0.0000
   1553 O          11.2856   -9.8757   21.1462 O.2     1  UNL1        0.0000
   1554 O          14.1254   -1.5898   18.2997 O.3     1  UNL1        0.0000
   1555 N          17.9215    1.8967   40.2985 N.pl3  32  UNL32       0.0000
   1556 N          17.9015    3.7386   41.4649 N.pl3  32  UNL32       0.0000
   1557 C          19.2068    2.0789   40.7862 C.2    32  UNL32       0.0000
   1558 C          19.1921    3.2375   41.5148 C.2    32  UNL32       0.0000
   1559 C          17.6057    6.1904   41.1319 C.3    32  UNL32       0.0000
   1560 C          17.4883    0.8097   39.4160 C.3    32  UNL32       0.0000
   1561 C          17.1452    2.9105   40.7244 C.3    32  UNL32       0.0000
   1562 C          17.4276    5.0005   42.0725 C.3    32  UNL32       0.0000
   1563 H          19.9957    1.3611   40.5988 H      32  UNL32       0.0000
   1564 H          19.9716    3.7271   42.0830 H      32  UNL32       0.0000
   1565 H          18.6579    6.3399   40.8595 H      32  UNL32       0.0000
   1566 H          17.9088    0.9613   38.4130 H      32  UNL32       0.0000
   1567 H          17.0165    6.0596   40.2148 H      32  UNL32       0.0000
   1568 H          17.8569   -0.1468   39.8063 H      32  UNL32       0.0000
   1569 H          17.2453    7.1013   41.6307 H      32  UNL32       0.0000
   1570 H          17.9824    5.1204   43.0105 H      32  UNL32       0.0000
   1571 H          16.3920    0.8128   39.3658 H      32  UNL32       0.0000
   1572 H          16.0847    3.0209   40.5362 H      32  UNL32       0.0000
   1573 H          16.3688    4.8590   42.3241 H      32  UNL32       0.0000
   1574 TI          3.8747  -12.4604   37.5252 Ti      1  UNL1        0.0000
   1575 TI         14.7052   -9.5792   28.1604 Ti      1  UNL1        0.0000
   1576 TI          7.9714  -16.3966   35.7052 Ti      1  UNL1        0.0000
   1577 TI          9.4826   -7.2344   29.9322 Ti      1  UNL1        0.0000
   1578 TI          8.4840   -5.5561   28.0278 Ti      1  UNL1        0.0000
   1579 TI          9.8596  -16.6509   37.6586 Ti      1  UNL1        0.0000
   1580 TI          4.8239  -14.1963   35.6337 Ti      1  UNL1        0.0000
   1581 TI         12.7174   -9.2766   30.0078 Ti      1  UNL1        0.0000
   1582 H           4.3766   -8.5633   37.3057 H      14  UNL14       0.0000
   1583 H          15.5140  -13.4852   28.4811 H       1  UNL1        0.0000
   1584 H          -0.0852  -13.2170   37.1427 H       3  UNL3        0.0000
   1585 H          18.0873   -7.5749   28.3610 H       1  UNL1        0.0000
   1586 H          10.8352  -20.6855   37.2726 H      16  UNL16       0.0000
   1587 H           4.4255   -6.1460   28.3498 H       1  UNL1        0.0000
   1588 H           8.9785   -7.1929   26.1547 H       1  UNL1        0.0000
   1589 H          12.8297   -9.8219   26.4604 H       1  UNL1        0.0000
   1590 H          10.3695  -17.3180   32.1475 H       1  UNL1        0.0000
   1591 H           7.7591   -5.3974   33.5511 H       1  UNL1        0.0000
   1592 H           0.7513  -10.8076   35.2778 H       1  UNL1        0.0000
   1593 H          17.4599  -11.6635   30.4664 H       1  UNL1        0.0000
   1594 H           3.0524  -12.2551   31.9440 H       1  UNL1        0.0000
   1595 H           5.3839   -3.7283   30.3810 H       1  UNL1        0.0000
   1596 H           8.8763   -2.4533   28.8833 H       1  UNL1        0.0000
   1597 H          15.3561  -15.5041   29.6835 H      54  UNL54       0.0000
   1598 H          11.5752   -7.5543   28.5935 H       1  UNL1        0.0000
   1599 H           6.8907  -14.5482   36.9988 H       1  UNL1        0.0000
   1600 H          14.0943  -14.7161   36.0482 H      15  UNL15       0.0000
   1601 H          12.6132  -15.1851   36.7956 H      15  UNL15       0.0000
   1602 H          14.6685  -10.2824   34.9493 H       1  UNL1        0.0000
   1603 H          14.0987   -9.9238   33.3308 H       1  UNL1        0.0000
   1604 H          13.6055  -19.6709   35.8582 H       1  UNL1        0.0000
   1605 H          12.3264  -18.5703   36.3156 H       1  UNL1        0.0000
   1606 C          15.2832  -10.3204   31.0239 C.3     1  UNL1        0.0000
   1607 C           2.9142  -12.1990   34.6782 C.3     1  UNL1        0.0000
   1608 C          10.5519  -17.4073   34.7805 C.3     1  UNL1        0.0000
   1609 C           7.5465   -5.2639   30.8915 C.3     1  UNL1        0.0000
   1610 C          16.1792  -10.9247   32.0191 C.ar    1  UNL1        0.0000
   1611 C           1.9823  -11.5740   33.7011 C.ar    1  UNL1        0.0000
   1612 C          11.4921  -18.0216   33.8333 C.2     1  UNL1        0.0000
   1613 C           6.6566   -4.6171   31.8913 C.ar    1  UNL1        0.0000
   1614 C          15.9305  -10.8498   33.4255 C.ar    1  UNL1        0.0000
   1615 C           2.1986  -11.6940   32.3131 C.ar    1  UNL1        0.0000
   1616 C          12.6215  -18.7819   34.2864 C.2     1  UNL1        0.0000
   1617 C           5.5619   -3.8442   31.4464 C.ar    1  UNL1        0.0000
   1618 C           6.9111   -4.7879   33.2462 C.ar    1  UNL1        0.0000
   1619 C          11.2444  -17.8895   32.4494 C.3     1  UNL1        0.0000
   1620 C          17.3129  -11.6237   31.5434 C.ar    1  UNL1        0.0000
   1621 C           0.8821  -10.8816   34.1998 C.ar    1  UNL1        0.0000
   1622 C          15.4950  -13.4061   26.3370 C.2     1  UNL1        0.0000
   1623 C           9.0253   -1.6146   26.3620 C.ar    1  UNL1        0.0000
   1624 C          17.9794   -7.6430   26.2110 C.ar    1  UNL1        0.0000
   1625 C           4.6211   -6.1006   26.1916 C.ar    1  UNL1        0.0000
   1626 C          10.2293   -9.5776   31.8968 C.3     1  UNL1        0.0000
   1627 C           5.4732  -16.6720   33.8149 C.2     1  UNL1        0.0000
   1628 C          15.3591  -11.9513   26.3138 C.2     1  UNL1        0.0000
   1629 C           8.9325   -3.0481   26.3245 C.3     1  UNL1        0.0000
   1630 C          16.6816   -8.2599   26.2578 C.3     1  UNL1        0.0000
   1631 C           6.0234   -5.6863   26.2160 C.3     1  UNL1        0.0000
   1632 C          15.5343  -14.0753   27.5666 C.3     1  UNL1        0.0000
   1633 C           4.3875   -7.9749   38.2196 C.2    14  UNL14       0.0000
   1634 C          18.6347   -7.3682   27.4449 C.ar    1  UNL1        0.0000
   1635 C          -0.6467  -13.3964   38.0581 C.2     3  UNL3        0.0000
   1636 C          14.0391  -14.4407   38.0726 C.2    15  UNL15       0.0000
   1637 C           3.9239   -6.3310   27.4040 C.ar    1  UNL1        0.0000
   1638 C          10.8768  -21.2126   38.2217 C.3    34  UNL34       0.0000
   1639 C           9.0390   -0.8634   27.5913 C.ar    1  UNL1        0.0000
   1640 N           9.0941   -1.4622   28.8294 N.pl3   1  UNL1        0.0000
   1641 N          13.4600  -14.6236   36.8336 N.pl3  15  UNL15       0.0000
   1642 N          14.8496  -10.2036   33.9568 N.pl3   1  UNL1        0.0000
   1643 N          12.9526  -18.9402   35.6038 N.pl3   1  UNL1        0.0000
   1644 O          14.1069   -9.9153   31.3897 O.3     1  UNL1        0.0000
   1645 O           3.6832  -13.1499   34.2799 O.3     1  UNL1        0.0000
   1646 O          10.9334  -17.2828   36.0016 O.3     1  UNL1        0.0000
   1647 O           7.4806   -4.8343   29.6919 O.3     1  UNL1        0.0000
   1648 O           8.3169   -6.2211   31.2780 O.3     1  UNL1        0.0000
   1649 O           9.3815  -17.0388   34.3750 O.3     1  UNL1        0.0000
   1650 O          15.6951  -10.2396   29.8122 O.3     1  UNL1        0.0000
   1651 O           2.8721  -11.7627   35.8779 O.3     1  UNL1        0.0000
   1652 O          13.0226  -10.4945   28.8131 O.3     1  UNL1        0.0000
   1653 O           5.3764  -12.6359   36.3782 O.3     1  UNL1        0.0000
   1654 O          13.9614   -8.2072   29.2631 O.3     1  UNL1        0.0000
   1655 O           3.6242  -14.3606   36.8709 O.3     1  UNL1        0.0000
   1656 O           8.2307  -17.5685   36.9656 O.3     1  UNL1        0.0000
   1657 O           9.9991   -5.6731   29.1937 O.3     1  UNL1        0.0000
   1658 O           9.1846  -15.3070   36.5014 O.3     1  UNL1        0.0000
   1659 O           8.2929   -7.4302   28.6763 O.3     1  UNL1        0.0000
   1660 O          10.6019  -18.4228   38.2677 O.3     1  UNL1        0.0000
   1661 O           8.8494   -3.7495   27.4197 O.3     1  UNL1        0.0000
   1662 O          11.4041  -15.6346   38.2626 O.3     1  UNL1        0.0000
   1663 O           6.6135   -5.5852   27.3596 O.3     1  UNL1        0.0000
   1664 O          16.1423   -8.5600   27.4058 O.3     1  UNL1        0.0000
   1665 O           1.9879  -12.5204   38.1936 O.3     1  UNL1        0.0000
   1666 O          15.3467  -11.3144   27.4352 O.2     1  UNL1        0.0000
   1667 O           4.2561  -10.7381   38.2749 O.3     1  UNL1        0.0000
   1668 O          11.2144   -8.1031   29.3142 O.3     1  UNL1        0.0000
   1669 O           6.5124  -15.1069   36.2952 O.3     1  UNL1        0.0000
   1670 O          13.6685   -9.3282   26.3814 O.3     1  UNL1        0.0000
   1671 O           9.1008   -6.2261   26.2147 O.3     1  UNL1        0.0000
   1672 H          10.4544  -13.2000   34.8261 H       1  UNL1        0.0000
   1673 H           6.5797  -18.8624   32.6854 H       1  UNL1        0.0000
   1674 H          11.3210   -4.1268   31.3396 H       1  UNL1        0.0000
   1675 H          11.4461  -11.6566   33.1094 H       1  UNL1        0.0000
   1676 H           6.7494  -11.0166   34.6502 H       1  UNL1        0.0000
   1677 H           2.9520  -16.5567   32.8711 H       1  UNL1        0.0000
   1678 H           8.1154  -12.8640   35.5694 H       1  UNL1        0.0000
   1679 H           7.7404   -9.4745   32.9271 H       1  UNL1        0.0000
   1680 H          12.6064   -6.0497   30.4523 H       1  UNL1        0.0000
   1681 H          -1.0409   -5.8582   31.0389 H       1  UNL1        0.0000
   1682 C           9.6503  -10.4761   32.9221 C.ar    1  UNL1        0.0000
   1683 C           8.5475  -12.1915   34.8302 C.ar    1  UNL1        0.0000
   1684 C          13.0810   -5.3575   31.1464 C.ar    1  UNL1        0.0000
   1685 C           4.8308  -17.6134   32.8606 C.2     1  UNL1        0.0000
   1686 C           8.3223  -10.2899   33.3516 C.ar    1  UNL1        0.0000
   1687 C           9.8695  -12.3821   34.4082 C.ar    1  UNL1        0.0000
   1688 C          12.3588   -4.2641   31.6402 C.ar    1  UNL1        0.0000
   1689 C           5.5479  -18.7207   32.3695 C.3     1  UNL1        0.0000
   1690 C          14.4140   -5.5599   31.5253 C.ar    1  UNL1        0.0000
   1691 C           3.4915  -17.4146   32.4747 C.3     1  UNL1        0.0000
   1692 C          10.4231  -11.5255   33.4559 C.ar    1  UNL1        0.0000
   1693 C           7.7743  -11.1477   34.3064 C.ar    1  UNL1        0.0000
   1694 O          11.4514   -9.7548   31.5410 O.3     1  UNL1        0.0000
   1695 O           4.8125  -15.6372   34.1842 O.2     1  UNL1        0.0000
   1696 O           6.6510  -16.9421   34.2408 O.2     1  UNL1        0.0000
   1697 O           9.4907   -8.6563   31.3943 O.3     1  UNL1        0.0000
   1698 N          13.2869   -5.1698   53.3931 N.pl3  35  UNL35       0.0000
   1699 N          13.2669   -3.3279   54.5595 N.pl3  35  UNL35       0.0000
   1700 C          14.5721   -4.9875   53.8809 C.2    35  UNL35       0.0000
   1701 C          14.5575   -3.8289   54.6094 C.2    35  UNL35       0.0000
   1702 C          12.9711   -0.8760   54.2266 C.3    35  UNL35       0.0000
   1703 C          12.8537   -6.2568   52.5106 C.3    35  UNL35       0.0000
   1704 C          12.5105   -4.1559   53.8190 C.3    35  UNL35       0.0000
   1705 C          12.7929   -2.0660   55.1671 C.3    35  UNL35       0.0000
   1706 H          15.3610   -5.7053   53.6934 H      35  UNL35       0.0000
   1707 H          15.3370   -3.3394   55.1776 H      35  UNL35       0.0000
   1708 H          14.0233   -0.7265   53.9541 H      35  UNL35       0.0000
   1709 H          13.2741   -6.1052   51.5076 H      35  UNL35       0.0000
   1710 H          12.3819   -1.0068   53.3094 H      35  UNL35       0.0000
   1711 H          13.2223   -7.2132   52.9009 H      35  UNL35       0.0000
   1712 H          12.6106    0.0348   54.7253 H      35  UNL35       0.0000
   1713 H          13.3478   -1.9460   56.1051 H      35  UNL35       0.0000
   1714 H          11.7574   -6.2537   52.4604 H      35  UNL35       0.0000
   1715 H          11.4501   -4.0455   53.6308 H      35  UNL35       0.0000
   1716 H          11.7342   -2.2074   55.4188 H      35  UNL35       0.0000
   1717 TI          6.6270   16.2850   11.2794 Ti      1  UNL1        0.0000
   1718 TI         17.4574   19.1662    1.9146 Ti      1  UNL1        0.0000
   1719 TI         10.7237   12.3488    9.4595 Ti      1  UNL1        0.0000
   1720 TI         12.2348   21.5109    3.6864 Ti      1  UNL1        0.0000
   1721 TI         11.2363   23.1893    1.7820 Ti      1  UNL1        0.0000
   1722 TI         12.6119   12.0945   11.4128 Ti      1  UNL1        0.0000
   1723 TI          7.5762   14.5491    9.3880 Ti      1  UNL1        0.0000
   1724 TI         15.4696   19.4688    3.7621 Ti      1  UNL1        0.0000
   1725 H           7.1288   20.1821   11.0600 H       1  UNL1        0.0000
   1726 H          18.2662   15.2602    2.2353 H       1  UNL1        0.0000
   1727 H           2.6671   15.5284   10.8970 H       1  UNL1        0.0000
   1728 H          20.8396   21.1705    2.1153 H       1  UNL1        0.0000
   1729 H          13.5875    8.0599   11.0269 H       1  UNL1        0.0000
   1730 H           7.1778   22.5994    2.1041 H       1  UNL1        0.0000
   1731 H          11.7307   21.5524   -0.0910 H       1  UNL1        0.0000
   1732 H          15.5819   18.9235    0.2147 H       1  UNL1        0.0000
   1733 H          13.1218   11.4274    5.9017 H       1  UNL1        0.0000
   1734 H          10.5114   23.3480    7.3054 H       1  UNL1        0.0000
   1735 H           3.5036   17.9377    9.0321 H       1  UNL1        0.0000
   1736 H          20.2122   17.0819    4.2206 H       1  UNL1        0.0000
   1737 H           5.8047   16.4903    5.6982 H       1  UNL1        0.0000
   1738 H           8.1362   25.0171    4.1353 H       1  UNL1        0.0000
   1739 H          11.6285   26.2921    2.6375 H       1  UNL1        0.0000
   1740 H          18.1084   13.2413    3.4378 H       1  UNL1        0.0000
   1741 H          14.3275   21.1911    2.3478 H       1  UNL1        0.0000
   1742 H           9.6430   14.1972   10.7531 H       1  UNL1        0.0000
   1743 H          16.8466   14.0293    9.8025 H       1  UNL1        0.0000
   1744 H          15.3655   13.5603   10.5498 H       1  UNL1        0.0000
   1745 H          17.4207   18.4630    8.7036 H       1  UNL1        0.0000
   1746 H          16.8510   18.8215    7.0851 H       1  UNL1        0.0000
   1747 H          16.3578    9.0745    9.6125 H       1  UNL1        0.0000
   1748 H          15.0786   10.1751   10.0699 H       1  UNL1        0.0000
   1749 C          18.0355   18.4250    4.7782 C.3     1  UNL1        0.0000
   1750 C           5.6664   16.5464    8.4324 C.3     1  UNL1        0.0000
   1751 C          13.3042   11.3381    8.5347 C.3     1  UNL1        0.0000
   1752 C          10.2987   23.4815    4.6458 C.3     1  UNL1        0.0000
   1753 C          18.9315   17.8207    5.7734 C.ar    1  UNL1        0.0000
   1754 C           4.7345   17.1714    7.4554 C.ar    1  UNL1        0.0000
   1755 C          14.2444   10.7238    7.5876 C.ar    1  UNL1        0.0000
   1756 C           9.4089   24.1283    5.6456 C.ar    1  UNL1        0.0000
   1757 C          18.6827   17.8956    7.1798 C.ar    1  UNL1        0.0000
   1758 C           4.9509   17.0514    6.0673 C.ar    1  UNL1        0.0000
   1759 C          15.3738    9.9635    8.0406 C.ar    1  UNL1        0.0000
   1760 C           8.3142   24.9012    5.2007 C.ar    1  UNL1        0.0000
   1761 C           9.6634   23.9575    7.0005 C.ar    1  UNL1        0.0000
   1762 C          13.9967   10.8559    6.2036 C.ar    1  UNL1        0.0000
   1763 C          20.0652   17.1217    5.2977 C.ar    1  UNL1        0.0000
   1764 C           3.6344   17.8638    7.9541 C.ar    1  UNL1        0.0000
   1765 C          18.2473   15.3392    0.0912 C.2     1  UNL1        0.0000
   1766 C          11.7775   27.1308    0.1162 C.2     1  UNL1        0.0000
   1767 C          20.7317   21.1024   -0.0348 C.2     1  UNL1        0.0000
   1768 C           7.3734   22.6448   -0.0542 C.2     1  UNL1        0.0000
   1769 C          12.9816   19.1678    5.6510 C.3     1  UNL1        0.0000
   1770 C           8.2255   12.0734    7.5692 C.3     1  UNL1        0.0000
   1771 C          18.1114   16.7941    0.0680 C.2     1  UNL1        0.0000
   1772 C          11.6848   25.6973    0.0787 C.2     1  UNL1        0.0000
   1773 C          19.4339   20.4855    0.0121 C.2     1  UNL1        0.0000
   1774 C           8.7757   23.0591   -0.0297 C.2     1  UNL1        0.0000
   1775 C          18.2866   14.6701    1.3209 C.2     1  UNL1        0.0000
   1776 C           7.1398   20.7705   11.9739 C.ar    1  UNL1        0.0000
   1777 C          21.3870   21.3772    1.1992 C.2     1  UNL1        0.0000
   1778 C           2.1056   15.3490   11.8124 C.ar    1  UNL1        0.0000
   1779 C          16.7913   14.3046   11.8268 C.ar    1  UNL1        0.0000
   1780 C           6.6762   22.4144    1.1583 C.2     1  UNL1        0.0000
   1781 C          13.6291    7.5328   11.9760 C.ar    1  UNL1        0.0000
   1782 C          11.7913   27.8820    1.3455 C.2     1  UNL1        0.0000
   1783 N          11.8464   27.2832    2.5837 N.pl3   1  UNL1        0.0000
   1784 N          16.2123   14.1218   10.5879 N.pl3   1  UNL1        0.0000
   1785 N          17.6019   18.5418    7.7111 N.pl3   1  UNL1        0.0000
   1786 N          15.7048    9.8052    9.3580 N.pl3   1  UNL1        0.0000
   1787 O          16.8592   18.8301    5.1440 O.3     1  UNL1        0.0000
   1788 O           6.4354   15.5955    8.0341 O.3     1  UNL1        0.0000
   1789 O          13.6856   11.4626    9.7559 O.3     1  UNL1        0.0000
   1790 O          10.2329   23.9111    3.4462 O.3     1  UNL1        0.0000
   1791 O          11.0692   22.5242    5.0323 O.3     1  UNL1        0.0000
   1792 O          12.1337   11.7065    8.1292 O.3     1  UNL1        0.0000
   1793 O          18.4474   18.5057    3.5664 O.3     1  UNL1        0.0000
   1794 O           5.6244   16.9826    9.6321 O.3     1  UNL1        0.0000
   1795 O          15.7749   18.2509    2.5674 O.3     1  UNL1        0.0000
   1796 O           8.1286   16.1095   10.1325 O.3     1  UNL1        0.0000
   1797 O          16.7136   20.5382    3.0174 O.3     1  UNL1        0.0000
   1798 O           6.3765   14.3848   10.6252 O.3     1  UNL1        0.0000
   1799 O          10.9830   11.1768   10.7199 O.3     1  UNL1        0.0000
   1800 O          12.7514   23.0723    2.9480 O.3     1  UNL1        0.0000
   1801 O          11.9369   13.4383   10.2557 O.3     1  UNL1        0.0000
   1802 O          11.0452   21.3151    2.4305 O.3     1  UNL1        0.0000
   1803 O          13.3542   10.3226   12.0219 O.3     1  UNL1        0.0000
   1804 O          11.6017   24.9959    1.1739 O.2     1  UNL1        0.0000
   1805 O          14.1563   13.1108   12.0168 O.3     1  UNL1        0.0000
   1806 O           9.3657   23.1601    1.1139 O.2     1  UNL1        0.0000
   1807 O          18.8945   20.1853    1.1601 O.2     1  UNL1        0.0000
   1808 O           4.7402   16.2250   11.9479 O.3     1  UNL1        0.0000
   1809 O          18.0990   17.4310    1.1895 O.2     1  UNL1        0.0000
   1810 O           7.0084   18.0073   12.0292 O.3     1  UNL1        0.0000
   1811 O          13.9666   20.6423    3.0685 O.3     1  UNL1        0.0000
   1812 O           9.2647   13.6385   10.0495 O.3     1  UNL1        0.0000
   1813 O          16.4207   19.4172    0.1357 O.3     1  UNL1        0.0000
   1814 O          11.8531   22.5192   -0.0311 O.3     1  UNL1        0.0000
   1815 H          13.2067   15.5454    8.5804 H       1  UNL1        0.0000
   1816 H           9.3320    9.8830    6.4396 H       1  UNL1        0.0000
   1817 H          14.0732   24.6186    5.0939 H       1  UNL1        0.0000
   1818 H          14.1983   17.0888    6.8637 H       1  UNL1        0.0000
   1819 H           9.5016   17.7288    8.4044 H       1  UNL1        0.0000
   1820 H           5.7043   12.1887    6.6253 H       1  UNL1        0.0000
   1821 H          10.8676   15.8813    9.3236 H       1  UNL1        0.0000
   1822 H          10.4926   19.2709    6.6814 H       1  UNL1        0.0000
   1823 H          15.3587   22.6957    4.2066 H       1  UNL1        0.0000
   1824 H           1.7113   22.8871    4.7932 H       1  UNL1        0.0000
   1825 C          12.4026   18.2693    6.6763 C.ar    1  UNL1        0.0000
   1826 C          11.2998   16.5539    8.5845 C.ar    1  UNL1        0.0000
   1827 C          15.8333   23.3879    4.9007 C.ar    1  UNL1        0.0000
   1828 C           7.5830   11.1319    6.6148 C.ar    1  UNL1        0.0000
   1829 C          11.0746   18.4554    7.1059 C.ar    1  UNL1        0.0000
   1830 C          12.6218   16.3633    8.1624 C.ar    1  UNL1        0.0000
   1831 C          15.1111   24.4813    5.3945 C.ar    1  UNL1        0.0000
   1832 C           8.3002   10.0247    6.1238 C.ar    1  UNL1        0.0000
   1833 C          17.1663   23.1855    5.2795 C.ar    1  UNL1        0.0000
   1834 C           6.2438   11.3307    6.2289 C.ar    1  UNL1        0.0000
   1835 C          13.1754   17.2199    7.2102 C.ar    1  UNL1        0.0000
   1836 C          10.5265   17.5977    8.0606 C.ar    1  UNL1        0.0000
   1837 O          14.2037   18.9906    5.2953 O.3     1  UNL1        0.0000
   1838 O           7.5647   13.1081    7.9385 O.3     1  UNL1        0.0000
   1839 O           9.4033   11.8032    7.9951 O.3     1  UNL1        0.0000
   1840 O          12.2430   20.0891    5.1485 O.3     1  UNL1        0.0000
   1841 N          16.0392   23.5756   27.1473 N.pl3  36  UNL36       0.0000
   1842 N          16.0191   25.4175   28.3138 N.pl3  36  UNL36       0.0000
   1843 C          17.3244   23.7578   27.6351 C.2    36  UNL36       0.0000
   1844 C          17.3098   24.9165   28.3637 C.2    36  UNL36       0.0000
   1845 C          15.7233   27.8693   27.9808 C.3    36  UNL36       0.0000
   1846 C          15.6059   22.4886   26.2649 C.3    36  UNL36       0.0000
   1847 C          15.2628   24.5895   27.5733 C.3    36  UNL36       0.0000
   1848 C          15.5452   26.6794   28.9214 C.3    36  UNL36       0.0000
   1849 H          18.1133   23.0401   27.4476 H      36  UNL36       0.0000
   1850 H          18.0893   25.4060   28.9318 H      36  UNL36       0.0000
   1851 H          16.7756   28.0188   27.7084 H      36  UNL36       0.0000
   1852 H          16.0264   22.6402   25.2618 H      36  UNL36       0.0000
   1853 H          15.1342   27.7386   27.0637 H      36  UNL36       0.0000
   1854 H          15.9745   21.5322   26.6552 H      36  UNL36       0.0000
   1855 H          15.3629   28.7802   28.4796 H      36  UNL36       0.0000
   1856 H          16.1000   26.7994   29.8594 H      36  UNL36       0.0000
   1857 H          14.5097   22.4917   26.2146 H      36  UNL36       0.0000
   1858 H          14.2023   24.6999   27.3851 H      36  UNL36       0.0000
   1859 H          14.4864   26.5380   29.1730 H      36  UNL36       0.0000
   1860 TI          1.9923    9.2186   24.3741 Ti      1  UNL1        0.0000
   1861 TI         12.8228   12.0998   15.0092 Ti      1  UNL1        0.0000
   1862 TI          6.0890    5.2824   22.5541 Ti      1  UNL1        0.0000
   1863 TI          7.6002   14.4445   16.7810 Ti      1  UNL1        0.0000
   1864 TI          6.6016   16.1228   14.8767 Ti      1  UNL1        0.0000
   1865 TI          7.9772    5.0280   24.5074 Ti      1  UNL1        0.0000
   1866 TI          2.9415    7.4827   22.4826 Ti      1  UNL1        0.0000
   1867 TI         10.8350   12.4023   16.8567 Ti      1  UNL1        0.0000
   1868 H           2.4942   13.1157   24.1546 H       1  UNL1        0.0000
   1869 H          13.6316    8.1937   15.3299 H       1  UNL1        0.0000
   1870 H          -1.9676    8.4619   23.9916 H       1  UNL1        0.0000
   1871 H          16.2049   14.1041   15.2099 H       1  UNL1        0.0000
   1872 H           8.9528    0.9935   24.1215 H       1  UNL1        0.0000
   1873 H           2.5431   15.5329   15.1987 H       1  UNL1        0.0000
   1874 H           7.0961   14.4860   13.0036 H       1  UNL1        0.0000
   1875 H          10.9473   11.8571   13.3093 H       1  UNL1        0.0000
   1876 H           8.4871    4.3609   18.9963 H       1  UNL1        0.0000
   1877 H           5.8768   16.2815   20.4000 H       1  UNL1        0.0000
   1878 H          -1.1311   10.8713   22.1267 H       1  UNL1        0.0000
   1879 H          15.5776   10.0155   17.3152 H       1  UNL1        0.0000
   1880 H           1.1700    9.4239   18.7928 H       1  UNL1        0.0000
   1881 H           3.5016   17.9507   17.2299 H       1  UNL1        0.0000
   1882 H           6.9939   19.2256   15.7321 H       1  UNL1        0.0000
   1883 H          13.4737    6.1749   16.5324 H       1  UNL1        0.0000
   1884 H           9.6928   14.1246   15.4424 H       1  UNL1        0.0000
   1885 H           5.0083    7.1308   23.8477 H       1  UNL1        0.0000
   1886 H          12.2120    6.9629   22.8971 H       1  UNL1        0.0000
   1887 H          10.7308    6.4938   23.6444 H       1  UNL1        0.0000
   1888 H          12.7861   11.3965   21.7982 H       1  UNL1        0.0000
   1889 H          12.2164   11.7551   20.1797 H       1  UNL1        0.0000
   1890 H          11.7231    2.0081   22.7071 H       1  UNL1        0.0000
   1891 H          10.4440    3.1086   23.1645 H       1  UNL1        0.0000
   1892 C          13.4008   11.3585   17.8728 C.3     1  UNL1        0.0000
   1893 C           1.0318    9.4800   21.5270 C.3     1  UNL1        0.0000
   1894 C           8.6695    4.2717   21.6294 C.3     1  UNL1        0.0000
   1895 C           5.6641   16.4150   17.7404 C.3     1  UNL1        0.0000
   1896 C          14.2969   10.7542   18.8680 C.ar    1  UNL1        0.0000
   1897 C           0.0999   10.1050   20.5500 C.ar    1  UNL1        0.0000
   1898 C           9.6097    3.6573   20.6822 C.ar    1  UNL1        0.0000
   1899 C           4.7743   17.0618   18.7402 C.ar    1  UNL1        0.0000
   1900 C          14.0481   10.8291   20.2744 C.ar    1  UNL1        0.0000
   1901 C           0.3163    9.9850   19.1620 C.ar    1  UNL1        0.0000
   1902 C          10.7392    2.8970   21.1352 C.ar    1  UNL1        0.0000
   1903 C           3.6795   17.8348   18.2953 C.ar    1  UNL1        0.0000
   1904 C           5.0288   16.8911   20.0951 C.ar    1  UNL1        0.0000
   1905 C           9.3620    3.7895   19.2982 C.ar    1  UNL1        0.0000
   1906 C          15.4305   10.0552   18.3923 C.ar    1  UNL1        0.0000
   1907 C          -1.0003   10.7974   21.0487 C.ar    1  UNL1        0.0000
   1908 C          13.6126    8.2728   13.1858 C.ar    1  UNL1        0.0000
   1909 C           7.1429   20.0644   13.2108 C.ar    1  UNL1        0.0000
   1910 C          16.0970   14.0359   13.0598 C.ar    1  UNL1        0.0000
   1911 C           2.7387   15.5784   13.0404 C.ar    1  UNL1        0.0000
   1912 C           8.3469   12.1013   18.7456 C.3     1  UNL1        0.0000
   1913 C           3.5908    5.0070   20.6638 C.3     1  UNL1        0.0000
   1914 C          13.4768    9.7277   13.1626 C.3     1  UNL1        0.0000
   1915 C           7.0501   18.6309   13.1734 C.3     1  UNL1        0.0000
   1916 C          14.7992   13.4191   13.1067 C.3     1  UNL1        0.0000
   1917 C           4.1410   15.9927   13.0649 C.3     1  UNL1        0.0000
   1918 C          13.6520    7.6037   14.4155 C.ar    1  UNL1        0.0000
   1919 C           2.5051   13.7041   25.0685 C.ar    1  UNL1        0.0000
   1920 C          16.7523   14.3107   14.2938 C.ar    1  UNL1        0.0000
   1921 C          -2.5291    8.2826   24.9070 C.ar    1  UNL1        0.0000
   1922 C          12.1567    7.2382   24.9215 C.ar    1  UNL1        0.0000
   1923 C           2.0415   15.3479   14.2529 C.ar    1  UNL1        0.0000
   1924 C           8.9945    0.4663   25.0706 C.ar    1  UNL1        0.0000
   1925 C           7.1567   20.8156   14.4401 C.ar    1  UNL1        0.0000
   1926 N           7.2117   20.2167   15.6783 N.pl3   1  UNL1        0.0000
   1927 N          11.5777    7.0554   23.6825 N.pl3   1  UNL1        0.0000
   1928 N          12.9672   11.4754   20.8057 N.pl3   1  UNL1        0.0000
   1929 N          11.0702    2.7388   22.4526 N.pl3   1  UNL1        0.0000
   1930 O          12.2245   11.7636   18.2386 O.3     1  UNL1        0.0000
   1931 O           1.8008    8.5291   21.1287 O.3     1  UNL1        0.0000
   1932 O           9.0510    4.3962   22.8505 O.3     1  UNL1        0.0000
   1933 O           5.5982   16.8447   16.5408 O.3     1  UNL1        0.0000
   1934 O           6.4345   15.4578   18.1269 O.3     1  UNL1        0.0000
   1935 O           7.4991    4.6401   21.2238 O.3     1  UNL1        0.0000
   1936 O          13.8127   11.4393   16.6610 O.3     1  UNL1        0.0000
   1937 O           0.9898    9.9162   22.7267 O.3     1  UNL1        0.0000
   1938 O          11.1402   11.1844   15.6620 O.3     1  UNL1        0.0000
   1939 O           3.4940    9.0430   23.2271 O.3     1  UNL1        0.0000
   1940 O          12.0790   13.4717   16.1120 O.3     1  UNL1        0.0000
   1941 O           1.7418    7.3184   23.7198 O.3     1  UNL1        0.0000
   1942 O           6.3483    4.1104   23.8145 O.3     1  UNL1        0.0000
   1943 O           8.1168   16.0058   16.0426 O.3     1  UNL1        0.0000
   1944 O           7.3023    6.3719   23.3503 O.3     1  UNL1        0.0000
   1945 O           6.4105   14.2487   15.5251 O.3     1  UNL1        0.0000
   1946 O           8.7195    3.2562   25.1166 O.3     1  UNL1        0.0000
   1947 O           6.9670   17.9294   14.2686 O.3     1  UNL1        0.0000
   1948 O           9.5217    6.0444   25.1114 O.3     1  UNL1        0.0000
   1949 O           4.7311   16.0937   14.2085 O.3     1  UNL1        0.0000
   1950 O          14.2599   13.1189   14.2547 O.3     1  UNL1        0.0000
   1951 O           0.1055    9.1585   25.0425 O.3     1  UNL1        0.0000
   1952 O          13.4643   10.3646   14.2841 O.3     1  UNL1        0.0000
   1953 O           2.3737   10.9409   25.1238 O.3     1  UNL1        0.0000
   1954 O           9.3320   13.5759   16.1631 O.3     1  UNL1        0.0000
   1955 O           4.6301    6.5721   23.1441 O.3     1  UNL1        0.0000
   1956 O          11.7861   12.3508   13.2303 O.3     1  UNL1        0.0000
   1957 O           7.2185   15.4528   13.0635 O.3     1  UNL1        0.0000
   1958 H           8.5721    8.4790   21.6750 H       1  UNL1        0.0000
   1959 H           4.6973    2.8165   19.5342 H       1  UNL1        0.0000
   1960 H           9.4386   17.5522   18.1885 H       1  UNL1        0.0000
   1961 H           9.5637   10.0223   19.9583 H       1  UNL1        0.0000
   1962 H           4.8670   10.6623   21.4990 H       1  UNL1        0.0000
   1963 H           1.0697    5.1223   19.7199 H       1  UNL1        0.0000
   1964 H           6.2330    8.8149   22.4182 H       1  UNL1        0.0000
   1965 H           5.8580   12.2045   19.7760 H       1  UNL1        0.0000
   1966 H          10.7240   15.6292   17.3012 H       1  UNL1        0.0000
   1967 H          -2.9233   15.8207   17.8878 H       1  UNL1        0.0000
   1968 C           7.7679   11.2029   19.7709 C.ar    1  UNL1        0.0000
   1969 C           6.6651    9.4874   21.6791 C.ar    1  UNL1        0.0000
   1970 C          11.1986   16.3215   17.9953 C.ar    1  UNL1        0.0000
   1971 C           2.9484    4.0655   19.7095 C.ar    1  UNL1        0.0000
   1972 C           6.4399   11.3890   20.2005 C.ar    1  UNL1        0.0000
   1973 C           7.9871    9.2968   21.2570 C.ar    1  UNL1        0.0000
   1974 C          10.4764   17.4148   18.4891 C.ar    1  UNL1        0.0000
   1975 C           3.6655    2.9583   19.2184 C.ar    1  UNL1        0.0000
   1976 C          12.5316   16.1191   18.3741 C.ar    1  UNL1        0.0000
   1977 C           1.6092    4.2643   19.3236 C.ar    1  UNL1        0.0000
   1978 C           8.5407   10.1535   20.3048 C.ar    1  UNL1        0.0000
   1979 C           5.8919   10.5313   21.1552 C.ar    1  UNL1        0.0000
   1980 O           9.5690   11.9242   18.3899 O.3     1  UNL1        0.0000
   1981 O           2.9301    6.0417   21.0331 O.3     1  UNL1        0.0000
   1982 O           4.7686    4.7368   21.0897 O.3     1  UNL1        0.0000
   1983 O           7.6083   13.0227   18.2432 O.3     1  UNL1        0.0000
   1984 N          11.4045   16.5092   40.2419 N.pl3  37  UNL37       0.0000
   1985 N          11.3845   18.3511   41.4084 N.pl3  37  UNL37       0.0000
   1986 C          12.6897   16.6914   40.7297 C.2    37  UNL37       0.0000
   1987 C          12.6751   17.8500   41.4583 C.2    37  UNL37       0.0000
   1988 C          11.0887   20.8029   41.0754 C.3    37  UNL37       0.0000
   1989 C          10.9713   15.4222   39.3595 C.3    37  UNL37       0.0000
   1990 C          10.6281   17.5230   40.6679 C.3    37  UNL37       0.0000
   1991 C          10.9106   19.6130   42.0160 C.3    37  UNL37       0.0000
   1992 H          13.4787   15.9736   40.5422 H      37  UNL37       0.0000
   1993 H          13.4546   18.3396   42.0264 H      37  UNL37       0.0000
   1994 H          12.1409   20.9524   40.8030 H      37  UNL37       0.0000
   1995 H          11.3917   15.5738   38.3564 H      37  UNL37       0.0000
   1996 H          10.4995   20.6722   40.1583 H      37  UNL37       0.0000
   1997 H          11.3399   14.4657   39.7498 H      37  UNL37       0.0000
   1998 H          10.7282   21.7138   41.5742 H      37  UNL37       0.0000
   1999 H          11.4654   19.7330   42.9540 H      37  UNL37       0.0000
   2000 H           9.8750   15.4253   39.3092 H      37  UNL37       0.0000
   2001 H           9.5677   17.6334   40.4797 H      37  UNL37       0.0000
   2002 H           9.8518   19.4715   42.2676 H      37  UNL37       0.0000
   2003 TI         -2.6423    2.1521   37.4687 Ti      1  UNL1        0.0000
   2004 TI          8.1882    5.0333   28.1039 Ti      1  UNL1        0.0000
   2005 TI          1.4544   -1.7841   35.6487 Ti      1  UNL1        0.0000
   2006 TI          2.9656    7.3781   29.8757 Ti      1  UNL1        0.0000
   2007 TI          1.9670    9.0564   27.9713 Ti      1  UNL1        0.0000
   2008 TI          3.3426   -2.0384   37.6021 Ti      1  UNL1        0.0000
   2009 TI         -1.6931    0.4162   35.5772 Ti      1  UNL1        0.0000
   2010 TI          6.2003    5.3359   29.9513 Ti      1  UNL1        0.0000
   2011 H          -2.1404    6.0492   37.2492 H      17  UNL17       0.0000
   2012 H           8.9969    1.1273   28.4245 H       1  UNL1        0.0000
   2013 H          -6.6022    1.3955   37.0862 H       7  UNL7        0.0000
   2014 H          11.5703    7.0376   28.3045 H       1  UNL1        0.0000
   2015 H           4.3182   -6.0729   37.2161 H      14  UNL14       0.0000
   2016 H          -2.0915    8.4665   28.2933 H       1  UNL1        0.0000
   2017 H           2.4614    7.4196   26.0982 H       1  UNL1        0.0000
   2018 H           6.3126    4.7907   26.4039 H       1  UNL1        0.0000
   2019 H           3.8525   -2.7055   32.0910 H       1  UNL1        0.0000
   2020 H           1.2421    9.2151   33.4946 H       1  UNL1        0.0000
   2021 H          -5.7657    3.8049   35.2213 H       1  UNL1        0.0000
   2022 H          10.9429    2.9490   30.4099 H       1  UNL1        0.0000
   2023 H          -3.4646    2.3574   31.8874 H       1  UNL1        0.0000
   2024 H          -1.1331   10.8842   30.3245 H       1  UNL1        0.0000
   2025 H           2.3592   12.1592   28.8267 H       1  UNL1        0.0000
   2026 H           8.8391   -0.8915   29.6270 H       1  UNL1        0.0000
   2027 H           5.0582    7.0582   28.5370 H       1  UNL1        0.0000
   2028 H           0.3737    0.0643   36.9423 H       1  UNL1        0.0000
   2029 H           7.5773   -0.1036   35.9917 H      18  UNL18       0.0000
   2030 H           6.0962   -0.5726   36.7391 H      18  UNL18       0.0000
   2031 H           8.1514    4.3301   34.8928 H       1  UNL1        0.0000
   2032 H           7.5817    4.6887   33.2743 H       1  UNL1        0.0000
   2033 H           7.0885   -5.0584   35.8017 H       1  UNL1        0.0000
   2034 H           5.8093   -3.9578   36.2591 H       1  UNL1        0.0000
   2035 C           8.7662    4.2921   30.9674 C.3     1  UNL1        0.0000
   2036 C          -3.6029    2.4135   34.6216 C.3     1  UNL1        0.0000
   2037 C           4.0349   -2.7948   34.7240 C.3     1  UNL1        0.0000
   2038 C           1.0294    9.3486   30.8350 C.3     1  UNL1        0.0000
   2039 C           9.6622    3.6878   31.9626 C.ar    1  UNL1        0.0000
   2040 C          -4.5348    3.0385   33.6446 C.ar    1  UNL1        0.0000
   2041 C           4.9751   -3.4091   33.7768 C.ar    1  UNL1        0.0000
   2042 C           0.1396    9.9954   31.8348 C.ar    1  UNL1        0.0000
   2043 C           9.4134    3.7627   33.3690 C.ar    1  UNL1        0.0000
   2044 C          -4.3184    2.9186   32.2566 C.ar    1  UNL1        0.0000
   2045 C           6.1045   -4.1694   34.2298 C.ar    1  UNL1        0.0000
   2046 C          -0.9551   10.7683   31.3899 C.ar    1  UNL1        0.0000
   2047 C           0.3941    9.8246   33.1897 C.ar    1  UNL1        0.0000
   2048 C           4.7274   -3.2770   32.3929 C.ar    1  UNL1        0.0000
   2049 C          10.7959    2.9888   31.4869 C.ar    1  UNL1        0.0000
   2050 C          -5.6349    3.7309   34.1433 C.ar    1  UNL1        0.0000
   2051 C           8.9780    1.2064   26.2804 C.ar    1  UNL1        0.0000
   2052 C           2.5082   12.9980   26.3055 C.ar    1  UNL1        0.0000
   2053 C          11.4624    6.9695   26.1544 C.ar    1  UNL1        0.0000
   2054 C          -1.8959    8.5119   26.1351 C.ar    1  UNL1        0.0000
   2055 C           3.7123    5.0349   31.8402 C.3     1  UNL1        0.0000
   2056 C          -1.0438   -2.0595   33.7584 C.3     1  UNL1        0.0000
   2057 C           8.8421    2.6612   26.2572 C.3     1  UNL1        0.0000
   2058 C           2.4155   11.5644   26.2680 C.3     1  UNL1        0.0000
   2059 C          10.1646    6.3527   26.2013 C.3     1  UNL1        0.0000
   2060 C          -0.4936    8.9263   26.1595 C.3     1  UNL1        0.0000
   2061 C           9.0173    0.5373   27.5101 C.ar    1  UNL1        0.0000
   2062 C          -2.1295    6.6376   38.1631 C.2    17  UNL17       0.0000
   2063 C          12.1177    7.2443   27.3884 C.ar    1  UNL1        0.0000
   2064 C          -7.1637    1.2161   38.0016 C.2     7  UNL7        0.0000
   2065 C           7.5221    0.1718   38.0161 C.2    18  UNL18       0.0000
   2066 C          -2.5931    8.2815   27.3475 C.ar    1  UNL1        0.0000
   2067 C           4.3598   -6.6001   38.1652 C.2    14  UNL14       0.0000
   2068 C           2.5220   13.7491   27.5347 C.ar    1  UNL1        0.0000
   2069 N           2.5771   13.1503   28.7729 N.pl3   1  UNL1        0.0000
   2070 N           6.9430   -0.0111   36.7771 N.pl3  18  UNL18       0.0000
   2071 N           8.3326    4.4090   33.9003 N.pl3   1  UNL1        0.0000
   2072 N           6.4355   -4.3277   35.5472 N.pl3   1  UNL1        0.0000
   2073 O           7.5899    4.6972   31.3332 O.3     1  UNL1        0.0000
   2074 O          -2.8339    1.4627   34.2234 O.3     1  UNL1        0.0000
   2075 O           4.4163   -2.6703   35.9451 O.3     1  UNL1        0.0000
   2076 O           0.9636    9.7782   29.6354 O.3     1  UNL1        0.0000
   2077 O           1.7999    8.3914   31.2215 O.3     1  UNL1        0.0000
   2078 O           2.8644   -2.4263   34.3184 O.3     1  UNL1        0.0000
   2079 O           9.1781    4.3729   29.7556 O.3     1  UNL1        0.0000
   2080 O          -3.6449    2.8498   35.8213 O.3     1  UNL1        0.0000
   2081 O           6.5056    4.1180   28.7566 O.3     1  UNL1        0.0000
   2082 O          -1.1407    1.9766   36.3217 O.3     1  UNL1        0.0000
   2083 O           7.4443    6.4053   29.2066 O.3     1  UNL1        0.0000
   2084 O          -2.8928    0.2519   36.8144 O.3     1  UNL1        0.0000
   2085 O           1.7137   -2.9560   36.9091 O.3     1  UNL1        0.0000
   2086 O           3.4821    8.9394   29.1372 O.3     1  UNL1        0.0000
   2087 O           2.6676   -0.6945   36.4449 O.3     1  UNL1        0.0000
   2088 O           1.7759    7.1823   28.6197 O.3     1  UNL1        0.0000
   2089 O           4.0849   -3.8103   38.2112 O.3     1  UNL1        0.0000
   2090 O           2.3324   10.8630   27.3632 O.3     1  UNL1        0.0000
   2091 O           4.8870   -1.0221   38.2060 O.3     1  UNL1        0.0000
   2092 O           0.0964    9.0273   27.3031 O.3     1  UNL1        0.0000
   2093 O           9.6252    6.0525   27.3493 O.3     1  UNL1        0.0000
   2094 O          -4.5291    2.0921   38.1371 O.3     1  UNL1        0.0000
   2095 O           8.8297    3.2981   27.3787 O.3     1  UNL1        0.0000
   2096 O          -2.2609    3.8744   38.2184 O.3     1  UNL1        0.0000
   2097 O           4.6973    6.5094   29.2577 O.3     1  UNL1        0.0000
   2098 O          -0.0046   -0.4944   36.2387 O.3     1  UNL1        0.0000
   2099 O           7.1515    5.2843   26.3249 O.3     1  UNL1        0.0000
   2100 O           2.5838    8.3864   26.1582 O.3     1  UNL1        0.0000
   2101 H           3.9374    1.4125   34.7696 H       1  UNL1        0.0000
   2102 H           0.0627   -4.2499   32.6288 H       1  UNL1        0.0000
   2103 H           4.8039   10.4857   31.2831 H       1  UNL1        0.0000
   2104 H           4.9290    2.9559   33.0529 H       1  UNL1        0.0000
   2105 H           0.2323    3.5959   34.5936 H       1  UNL1        0.0000
   2106 H          -3.5650   -1.9442   32.8145 H       1  UNL1        0.0000
   2107 H           1.5984    1.7485   35.5128 H       1  UNL1        0.0000
   2108 H           1.2233    5.1380   32.8706 H       1  UNL1        0.0000
   2109 H           6.0894    8.5628   30.3958 H       1  UNL1        0.0000
   2110 H          -7.5579    8.7543   30.9824 H       1  UNL1        0.0000
   2111 C           3.1333    4.1364   32.8655 C.ar    1  UNL1        0.0000
   2112 C           2.0305    2.4210   34.7737 C.ar    1  UNL1        0.0000
   2113 C           6.5640    9.2550   31.0899 C.ar    1  UNL1        0.0000
   2114 C          -1.6862   -3.0009   32.8041 C.ar    1  UNL1        0.0000
   2115 C           1.8053    4.3226   33.2951 C.ar    1  UNL1        0.0000
   2116 C           3.3525    2.2304   34.3516 C.ar    1  UNL1        0.0000
   2117 C           5.8418   10.3484   31.5837 C.ar    1  UNL1        0.0000
   2118 C          -0.9691   -4.1081   32.3130 C.ar    1  UNL1        0.0000
   2119 C           7.8970    9.0526   31.4687 C.ar    1  UNL1        0.0000
   2120 C          -3.0255   -2.8021   32.4182 C.ar    1  UNL1        0.0000
   2121 C           3.9061    3.0871   33.3994 C.ar    1  UNL1        0.0000
   2122 C           1.2572    3.4648   34.2498 C.ar    1  UNL1        0.0000
   2123 O           4.9344    4.8577   31.4845 O.3     1  UNL1        0.0000
   2124 O          -1.7046   -1.0247   34.1277 O.3     1  UNL1        0.0000
   2125 O           0.1340   -2.3296   34.1843 O.3     1  UNL1        0.0000
   2126 O           2.9737    5.9562   31.3378 O.3     1  UNL1        0.0000
   2127 N           6.7699    9.4427   53.3365 N.pl3  38  UNL38       0.0000
   2128 N           6.7498   11.2846   54.5030 N.pl3  38  UNL38       0.0000
   2129 C           8.0551    9.6250   53.8243 C.2    38  UNL38       0.0000
   2130 C           8.0405   10.7836   54.5529 C.2    38  UNL38       0.0000
   2131 C           6.4540   13.7365   54.1700 C.3    38  UNL38       0.0000
   2132 C           6.3366    8.3557   52.4541 C.3    38  UNL38       0.0000
   2133 C           5.9935   10.4566   53.7625 C.3    38  UNL38       0.0000
   2134 C           6.2759   12.5465   55.1106 C.3    38  UNL38       0.0000
   2135 H           8.8440    8.9072   53.6369 H      38  UNL38       0.0000
   2136 H           8.8200   11.2731   55.1211 H      38  UNL38       0.0000
   2137 H           7.5063   13.8860   53.8976 H      38  UNL38       0.0000
   2138 H           6.7571    8.5073   51.4511 H      38  UNL38       0.0000
   2139 H           5.8649   13.6057   53.2529 H      38  UNL38       0.0000
   2140 H           6.7053    7.3993   52.8444 H      38  UNL38       0.0000
   2141 H           6.0936   14.6473   54.6688 H      38  UNL38       0.0000
   2142 H           6.8307   12.6665   56.0486 H      38  UNL38       0.0000
   2143 H           5.2404    8.3588   52.4038 H      38  UNL38       0.0000
   2144 H           4.9330   10.5670   53.5743 H      38  UNL38       0.0000
   2145 H           5.2171   12.4051   55.3622 H      38  UNL38       0.0000
   2146 TI          0.1099   30.8975   11.2229 Ti      1  UNL1        0.0000
   2147 TI         10.9404   33.7787    1.8581 Ti      1  UNL1        0.0000
   2148 TI          4.2066   26.9613    9.4029 Ti      1  UNL1        0.0000
   2149 TI          5.7178   36.1235    3.6299 Ti      1  UNL1        0.0000
   2150 TI          4.7192   37.8018    1.7255 Ti      1  UNL1        0.0000
   2151 TI          6.0948   26.7070   11.3563 Ti      1  UNL1        0.0000
   2152 TI          1.0591   29.1616    9.3315 Ti      1  UNL1        0.0000
   2153 TI          8.9526   34.0813    3.7056 Ti      1  UNL1        0.0000
   2154 H           0.6118   34.7946   11.0035 H       1  UNL1        0.0000
   2155 H          11.7492   29.8727    2.1788 H       1  UNL1        0.0000
   2156 H          -3.8500   30.1409   10.8405 H       1  UNL1        0.0000
   2157 H          14.3226   35.7830    2.0588 H       1  UNL1        0.0000
   2158 H           7.0704   22.6724   10.9704 H       1  UNL1        0.0000
   2159 H           0.6607   37.2119    2.0476 H       1  UNL1        0.0000
   2160 H           5.2137   36.1650   -0.1476 H       1  UNL1        0.0000
   2161 H           9.0649   33.5360    0.1582 H       1  UNL1        0.0000
   2162 H           6.6047   26.0399    5.8452 H       1  UNL1        0.0000
   2163 H           3.9944   37.9605    7.2489 H       1  UNL1        0.0000
   2164 H          -3.0135   32.5503    8.9755 H       1  UNL1        0.0000
   2165 H          13.6952   31.6944    4.1641 H       1  UNL1        0.0000
   2166 H          -0.7124   31.1028    5.6417 H       1  UNL1        0.0000
   2167 H           1.6192   39.6296    4.0788 H       1  UNL1        0.0000
   2168 H           5.1115   40.9046    2.5810 H       1  UNL1        0.0000
   2169 H          11.5914   27.8538    3.3813 H       1  UNL1        0.0000
   2170 H           7.8104   35.8036    2.2913 H       1  UNL1        0.0000
   2171 H           3.1259   28.8097   10.6966 H       1  UNL1        0.0000
   2172 H          10.3296   28.6418    9.7460 H       1  UNL1        0.0000
   2173 H           8.8484   28.1728   10.4933 H       1  UNL1        0.0000
   2174 H          10.9037   33.0755    8.6471 H       1  UNL1        0.0000
   2175 H          10.3340   33.4340    7.0285 H       1  UNL1        0.0000
   2176 H           9.8408   23.6870    9.5559 H       1  UNL1        0.0000
   2177 H           8.5616   24.7876   10.0133 H       1  UNL1        0.0000
   2178 C          11.5185   33.0375    4.7216 C.3     1  UNL1        0.0000
   2179 C          -0.8506   31.1589    8.3759 C.3     1  UNL1        0.0000
   2180 C           6.7871   25.9506    8.4782 C.3     1  UNL1        0.0000
   2181 C           3.7817   38.0940    4.5893 C.3     1  UNL1        0.0000
   2182 C          12.4145   32.4332    5.7168 C.ar    1  UNL1        0.0000
   2183 C          -1.7825   31.7839    7.3989 C.ar    1  UNL1        0.0000
   2184 C           7.7273   25.3363    7.5310 C.ar    1  UNL1        0.0000
   2185 C           2.8919   38.7408    5.5891 C.2     1  UNL1        0.0000
   2186 C          12.1657   32.5081    7.1233 C.ar    1  UNL1        0.0000
   2187 C          -1.5661   31.6639    6.0108 C.ar    1  UNL1        0.0000
   2188 C           8.8568   24.5760    7.9841 C.ar    1  UNL1        0.0000
   2189 C           1.7972   39.5137    5.1441 C.3     1  UNL1        0.0000
   2190 C           3.1464   38.5700    6.9440 C.2     1  UNL1        0.0000
   2191 C           7.4796   25.4684    6.1471 C.ar    1  UNL1        0.0000
   2192 C          13.5481   31.7342    5.2411 C.ar    1  UNL1        0.0000
   2193 C          -2.8827   32.4763    7.8975 C.ar    1  UNL1        0.0000
   2194 C          11.7302   29.9517    0.0347 C.2     1  UNL1        0.0000
   2195 C           5.2605   41.7433    0.0597 C.2     1  UNL1        0.0000
   2196 C          14.2147   35.7149   -0.0913 C.2     1  UNL1        0.0000
   2197 C           0.8563   37.2573   -0.1107 C.2     1  UNL1        0.0000
   2198 C           6.4645   33.7803    5.5945 C.3     1  UNL1        0.0000
   2199 C           1.7084   26.6859    7.5126 C.3     1  UNL1        0.0000
   2200 C          11.5944   31.4066    0.0115 C.2     1  UNL1        0.0000
   2201 C           5.1677   40.3098    0.0222 C.2     1  UNL1        0.0000
   2202 C          12.9168   35.0980   -0.0444 C.2     1  UNL1        0.0000
   2203 C           2.2586   37.6716   -0.0862 C.2     1  UNL1        0.0000
   2204 C          11.7696   29.2826    1.2644 C.2     1  UNL1        0.0000
   2205 C           0.6227   35.3830   11.9174 C.3     1  UNL1        0.0000
   2206 C          14.8700   35.9897    1.1427 C.2     1  UNL1        0.0000
   2207 C          -4.4114   29.9615   11.7558 C.ar    1  UNL1        0.0000
   2208 C          10.2743   28.9172   11.7703 C.ar    1  UNL1        0.0000
   2209 C           0.1591   37.0269    1.1018 C.2     1  UNL1        0.0000
   2210 C           7.1121   22.1453   11.9194 C.ar    1  UNL1        0.0000
   2211 C           5.2743   42.4945    1.2890 C.3     1  UNL1        0.0000
   2212 N           5.3293   41.8957    2.5272 N.3     1  UNL1        0.0000
   2213 N           9.6953   28.7343   10.5314 N.pl3   1  UNL1        0.0000
   2214 N          11.0848   33.1543    7.6546 N.pl3   1  UNL1        0.0000
   2215 N           9.1878   24.4177    9.3015 N.pl3   1  UNL1        0.0000
   2216 O          10.3421   33.4426    5.0874 O.3     1  UNL1        0.0000
   2217 O          -0.0816   30.2080    7.9776 O.3     1  UNL1        0.0000
   2218 O           7.1686   26.0751    9.6993 O.3     1  UNL1        0.0000
   2219 O           3.7158   38.5236    3.3897 O.3     1  UNL1        0.0000
   2220 O           4.5522   37.1367    4.9757 O.3     1  UNL1        0.0000
   2221 O           5.6167   26.3191    8.0727 O.3     1  UNL1        0.0000
   2222 O          11.9303   33.1182    3.5099 O.3     1  UNL1        0.0000
   2223 O          -0.8926   31.5952    9.5756 O.3     1  UNL1        0.0000
   2224 O           9.2578   32.8634    2.5109 O.3     1  UNL1        0.0000
   2225 O           1.6116   30.7220   10.0760 O.3     1  UNL1        0.0000
   2226 O          10.1966   35.1507    2.9609 O.3     1  UNL1        0.0000
   2227 O          -0.1406   28.9973   10.5686 O.3     1  UNL1        0.0000
   2228 O           4.4659   25.7894   10.6634 O.3     1  UNL1        0.0000
   2229 O           6.2344   37.6848    2.8914 O.3     1  UNL1        0.0000
   2230 O           5.4199   28.0508   10.1992 O.3     1  UNL1        0.0000
   2231 O           4.5281   35.9277    2.3740 O.3     1  UNL1        0.0000
   2232 O           6.8372   24.9351   11.9654 O.3     1  UNL1        0.0000
   2233 O           5.0846   39.6084    1.1174 O.2     1  UNL1        0.0000
   2234 O           7.6393   27.7233   11.9603 O.3     1  UNL1        0.0000
   2235 O           2.8487   37.7727    1.0574 O.2     1  UNL1        0.0000
   2236 O          12.3775   34.7979    1.1036 O.2     1  UNL1        0.0000
   2237 O          -1.7768   30.8375   11.8914 O.3     1  UNL1        0.0000
   2238 O          11.5819   32.0435    1.1330 O.2     1  UNL1        0.0000
   2239 O           0.4914   32.6198   11.9726 O.2     1  UNL1        0.0000
   2240 O           7.4496   35.2548    3.0120 O.3     1  UNL1        0.0000
   2241 O           2.7477   28.2510    9.9930 O.3     1  UNL1        0.0000
   2242 O           9.9037   34.0297    0.0792 O.3     1  UNL1        0.0000
   2243 O           5.3361   37.1318   -0.0876 O.3     1  UNL1        0.0000
   2244 H           6.6897   30.1579    8.5238 H       1  UNL1        0.0000
   2245 H           2.8149   24.4955    6.3831 H       1  UNL1        0.0000
   2246 H           7.5562   39.2311    5.0373 H      19  UNL19       0.0000
   2247 H           7.6813   31.7013    6.8071 H       1  UNL1        0.0000
   2248 H           2.9846   32.3413    8.3479 H       1  UNL1        0.0000
   2249 H          -0.8127   26.8012    6.5688 H       1  UNL1        0.0000
   2250 H           4.3506   30.4939    9.2671 H       1  UNL1        0.0000
   2251 H           3.9756   33.8834    6.6249 H       1  UNL1        0.0000
   2252 H           8.8417   37.3082    4.1501 H      19  UNL19       0.0000
   2253 H          -4.8057   37.4996    4.7367 H       8  UNL8        0.0000
   2254 C           5.8856   32.8818    6.6198 C.ar    1  UNL1        0.0000
   2255 C           4.7828   31.1664    8.5279 C.ar    1  UNL1        0.0000
   2256 C           9.3163   38.0004    4.8441 C.2    19  UNL19       0.0000
   2257 C           1.0660   25.7444    6.5583 C.ar    1  UNL1        0.0000
   2258 C           4.5576   33.0680    7.0493 C.ar    1  UNL1        0.0000
   2259 C           6.1048   30.9758    8.1059 C.ar    1  UNL1        0.0000
   2260 C           8.5940   39.0938    5.3380 C.2    19  UNL19       0.0000
   2261 C           1.7832   24.6372    6.0673 C.ar    1  UNL1        0.0000
   2262 C          10.6492   37.7980    5.2230 C.3    19  UNL19       0.0000
   2263 C          -0.2732   25.9433    6.1724 C.ar    1  UNL1        0.0000
   2264 C           6.6583   31.8324    7.1537 C.ar    1  UNL1        0.0000
   2265 C           4.0095   32.2102    8.0041 C.ar    1  UNL1        0.0000
   2266 O           7.6866   33.6031    5.2388 O.3     1  UNL1        0.0000
   2267 O           1.0477   27.7207    7.8820 O.3     1  UNL1        0.0000
   2268 O           2.8862   26.4157    7.9385 O.3     1  UNL1        0.0000
   2269 O           5.7260   34.7016    5.0920 O.3     1  UNL1        0.0000
   2270 N           9.5221   38.1881   27.0908 N.pl3  39  UNL39       0.0000
   2271 N           9.5021   40.0300   28.2572 N.pl3  39  UNL39       0.0000
   2272 C          10.8073   38.3704   27.5786 C.2    39  UNL39       0.0000
   2273 C          10.7927   39.5290   28.3072 C.2    39  UNL39       0.0000
   2274 C           9.2063   42.4818   27.9243 C.3    39  UNL39       0.0000
   2275 C           9.0889   37.1011   26.2084 C.3    39  UNL39       0.0000
   2276 C           8.7458   39.2020   27.5167 C.3    39  UNL39       0.0000
   2277 C           9.0282   41.2919   28.8649 C.3    39  UNL39       0.0000
   2278 H          11.5963   37.6526   27.3911 H      39  UNL39       0.0000
   2279 H          11.5722   40.0185   28.8753 H      39  UNL39       0.0000
   2280 H          10.2585   42.6314   27.6518 H      39  UNL39       0.0000
   2281 H           9.5093   37.2527   25.2053 H      39  UNL39       0.0000
   2282 H           8.6171   42.3511   27.0072 H      39  UNL39       0.0000
   2283 H           9.4575   36.1447   26.5987 H      39  UNL39       0.0000
   2284 H           8.8459   43.3927   28.4230 H      39  UNL39       0.0000
   2285 H           9.5830   41.4119   29.8028 H      39  UNL39       0.0000
   2286 H           7.9926   37.1042   26.1581 H      39  UNL39       0.0000
   2287 H           7.6853   39.3124   27.3286 H      39  UNL39       0.0000
   2288 H           7.9694   41.1505   29.1165 H      39  UNL39       0.0000
   2289 TI         -4.5247   23.8311   24.3175 Ti      1  UNL1        0.0000
   2290 TI          6.3058   26.7123   14.9527 Ti      1  UNL1        0.0000
   2291 TI         -0.4280   19.8949   22.4976 Ti      1  UNL1        0.0000
   2292 TI          1.0832   29.0570   16.7245 Ti      1  UNL1        0.0000
   2293 TI          0.0846   30.7353   14.8201 Ti      1  UNL1        0.0000
   2294 TI          1.4602   19.6405   24.4509 Ti      1  UNL1        0.0000
   2295 TI         -3.5755   22.0952   22.4261 Ti      1  UNL1        0.0000
   2296 TI          4.3180   27.0148   16.8002 Ti      1  UNL1        0.0000
   2297 H          -4.0228   27.7282   24.0981 H       1  UNL1        0.0000
   2298 H           7.1146   22.8062   15.2734 H       1  UNL1        0.0000
   2299 H          -8.4846   23.0745   23.9351 H       1  UNL1        0.0000
   2300 H           9.6879   28.7166   15.1534 H       1  UNL1        0.0000
   2301 H           2.4358   15.6060   24.0650 H       1  UNL1        0.0000
   2302 H          -3.9739   30.1454   15.1422 H       1  UNL1        0.0000
   2303 H           0.5791   29.0985   12.9471 H       1  UNL1        0.0000
   2304 H           4.4302   26.4696   13.2528 H       1  UNL1        0.0000
   2305 H           1.9701   18.9734   18.9398 H       1  UNL1        0.0000
   2306 H          -0.6403   30.8940   20.3435 H       1  UNL1        0.0000
   2307 H          -7.6481   25.4838   22.0702 H       1  UNL1        0.0000
   2308 H           9.0605   24.6280   17.2587 H       1  UNL1        0.0000
   2309 H          -5.3470   24.0364   18.7363 H       1  UNL1        0.0000
   2310 H          -3.0155   32.5632   17.1734 H       1  UNL1        0.0000
   2311 H           0.4768   33.8382   15.6756 H       1  UNL1        0.0000
   2312 H           6.9567   20.7874   16.4759 H       1  UNL1        0.0000
   2313 H           3.1758   28.7371   15.3859 H       1  UNL1        0.0000
   2314 H          -1.5087   21.7433   23.7912 H       1  UNL1        0.0000
   2315 H           5.6949   21.5754   22.8406 H       1  UNL1        0.0000
   2316 H           4.2138   21.1063   23.5879 H       1  UNL1        0.0000
   2317 H           6.2690   26.0090   21.7417 H       1  UNL1        0.0000
   2318 H           5.6993   26.3676   20.1231 H       1  UNL1        0.0000
   2319 H           5.2061   16.6206   22.6506 H       1  UNL1        0.0000
   2320 H           3.9270   17.7211   23.1080 H       1  UNL1        0.0000
   2321 C           6.8838   25.9711   17.8163 C.3     1  UNL1        0.0000
   2322 C          -5.4853   24.0925   21.4705 C.3     1  UNL1        0.0000
   2323 C           2.1525   18.8842   21.5728 C.3     1  UNL1        0.0000
   2324 C          -0.8529   31.0275   17.6839 C.3     1  UNL1        0.0000
   2325 C           7.7798   25.3667   18.8114 C.ar    1  UNL1        0.0000
   2326 C          -6.4172   24.7175   20.4935 C.ar    1  UNL1        0.0000
   2327 C           3.0927   18.2698   20.6256 C.ar    1  UNL1        0.0000
   2328 C          -1.7428   31.6743   18.6837 C.2     1  UNL1        0.0000
   2329 C           7.5311   25.4417   20.2179 C.ar    1  UNL1        0.0000
   2330 C          -6.2008   24.5975   19.1054 C.ar    1  UNL1        0.0000
   2331 C           4.2221   17.5095   21.0787 C.ar    1  UNL1        0.0000
   2332 C          -2.8375   32.4473   18.2388 C.3     1  UNL1        0.0000
   2333 C          -1.4883   31.5036   20.0386 C.2     1  UNL1        0.0000
   2334 C           2.8450   18.4020   19.2417 C.ar    1  UNL1        0.0000
   2335 C           8.9135   24.6678   18.3357 C.ar    1  UNL1        0.0000
   2336 C          -7.5173   25.4099   20.9921 C.ar    1  UNL1        0.0000
   2337 C           7.0956   22.8853   13.1293 C.ar    1  UNL1        0.0000
   2338 C           0.6258   34.6769   13.1543 C.2     1  UNL1        0.0000
   2339 C           9.5800   28.6484   13.0033 C.ar    1  UNL1        0.0000
   2340 C          -3.7783   30.1909   12.9839 C.ar    1  UNL1        0.0000
   2341 C           1.8299   26.7138   18.6891 C.3     1  UNL1        0.0000
   2342 C          -2.9262   19.6195   20.6073 C.3     1  UNL1        0.0000
   2343 C           6.9597   24.3402   13.1061 C.3     1  UNL1        0.0000
   2344 C           0.5331   33.2434   13.1168 C.2     1  UNL1        0.0000
   2345 C           8.2822   28.0316   13.0502 C.3     1  UNL1        0.0000
   2346 C          -2.3760   30.6052   13.0084 C.3     1  UNL1        0.0000
   2347 C           7.1349   22.2162   14.3590 C.ar    1  UNL1        0.0000
   2348 C          -4.0119   28.3166   25.0120 C.3     1  UNL1        0.0000
   2349 C          10.2353   28.9232   14.2373 C.ar    1  UNL1        0.0000
   2350 C          -9.0461   22.8951   24.8504 C.ar    1  UNL1        0.0000
   2351 C           5.6397   21.8507   24.8649 C.ar    1  UNL1        0.0000
   2352 C          -4.4755   29.9604   14.1964 C.ar    1  UNL1        0.0000
   2353 C           2.4774   15.0788   25.0141 C.ar    1  UNL1        0.0000
   2354 C           0.6396   35.4281   14.3836 C.3     1  UNL1        0.0000
   2355 N           0.6947   34.8293   15.6218 N.3     1  UNL1        0.0000
   2356 N           5.0606   21.6679   23.6260 N.pl3   1  UNL1        0.0000
   2357 N           6.4502   26.0879   20.7492 N.pl3   1  UNL1        0.0000
   2358 N           4.5531   17.3513   22.3961 N.pl3   1  UNL1        0.0000
   2359 O           5.7075   26.3762   18.1821 O.3     1  UNL1        0.0000
   2360 O          -4.7163   23.1416   21.0722 O.3     1  UNL1        0.0000
   2361 O           2.5339   19.0087   22.7939 O.3     1  UNL1        0.0000
   2362 O          -0.9188   31.4572   16.4843 O.3     1  UNL1        0.0000
   2363 O          -0.0825   30.0703   18.0703 O.3     1  UNL1        0.0000
   2364 O           0.9821   19.2526   21.1673 O.3     1  UNL1        0.0000
   2365 O           7.2957   26.0518   16.6045 O.3     1  UNL1        0.0000
   2366 O          -5.5273   24.5287   22.6702 O.3     1  UNL1        0.0000
   2367 O           4.6232   25.7969   15.6055 O.3     1  UNL1        0.0000
   2368 O          -3.0230   23.6555   23.1706 O.3     1  UNL1        0.0000
   2369 O           5.5620   28.0842   16.0555 O.3     1  UNL1        0.0000
   2370 O          -4.7752   21.9309   23.6632 O.3     1  UNL1        0.0000
   2371 O          -0.1687   18.7229   23.7580 O.3     1  UNL1        0.0000
   2372 O           1.5997   30.6183   15.9861 O.3     1  UNL1        0.0000
   2373 O           0.7852   20.9844   23.2938 O.3     1  UNL1        0.0000
   2374 O          -0.1065   28.8612   15.4686 O.3     1  UNL1        0.0000
   2375 O           2.2025   17.8687   25.0600 O.3     1  UNL1        0.0000
   2376 O           0.4500   32.5419   14.2120 O.2     1  UNL1        0.0000
   2377 O           3.0047   20.6569   25.0549 O.3     1  UNL1        0.0000
   2378 O          -1.7859   30.7062   14.1520 O.3     1  UNL1        0.0000
   2379 O           7.7428   27.7314   14.1982 O.3     1  UNL1        0.0000
   2380 O          -6.4115   23.7710   24.9860 O.3     1  UNL1        0.0000
   2381 O           6.9473   24.9771   14.2276 O.3     1  UNL1        0.0000
   2382 O          -4.1433   25.5534   25.0672 O.2     1  UNL1        0.0000
   2383 O           2.8150   28.1884   16.1066 O.3     1  UNL1        0.0000
   2384 O          -1.8870   21.1846   23.0876 O.3     1  UNL1        0.0000
   2385 O           5.2691   26.9633   13.1738 O.3     1  UNL1        0.0000
   2386 O           0.7014   30.0653   13.0070 O.3     1  UNL1        0.0000
   2387 H           2.0550   23.0915   21.6184 H       1  UNL1        0.0000
   2388 H          -1.8197   17.4290   19.4777 H       1  UNL1        0.0000
   2389 H           2.9215   32.1647   18.1319 H      20  UNL20       0.0000
   2390 H           3.0467   24.6348   19.9018 H       1  UNL1        0.0000
   2391 H          -1.6500   25.2749   21.4425 H       1  UNL1        0.0000
   2392 H          -5.4474   19.7348   19.6634 H       1  UNL1        0.0000
   2393 H          -0.2840   23.4274   22.3617 H       1  UNL1        0.0000
   2394 H          -0.6590   26.8170   19.7195 H       1  UNL1        0.0000
   2395 H           4.2070   30.2417   17.2447 H      20  UNL20       0.0000
   2396 H          -9.4403   30.4332   17.8313 H       9  UNL9        0.0000
   2397 C           1.2509   25.8154   19.7144 C.ar    1  UNL1        0.0000
   2398 C           0.1481   24.1000   21.6226 C.ar    1  UNL1        0.0000
   2399 C           4.6816   30.9340   17.9388 C.2    20  UNL20       0.0000
   2400 C          -3.5686   18.6780   19.6529 C.ar    1  UNL1        0.0000
   2401 C          -0.0771   26.0015   20.1440 C.ar    1  UNL1        0.0000
   2402 C           1.4701   23.9093   21.2005 C.ar    1  UNL1        0.0000
   2403 C           3.9594   32.0273   18.4326 C.2    20  UNL20       0.0000
   2404 C          -2.8515   17.5708   19.1619 C.ar    1  UNL1        0.0000
   2405 C           6.0146   30.7316   18.3176 C.3    20  UNL20       0.0000
   2406 C          -4.9079   18.8768   19.2670 C.ar    1  UNL1        0.0000
   2407 C           2.0237   24.7660   20.2483 C.ar    1  UNL1        0.0000
   2408 C          -0.6251   25.1438   21.0987 C.ar    1  UNL1        0.0000
   2409 O           3.0520   26.5367   18.3334 O.3     1  UNL1        0.0000
   2410 O          -3.5870   20.6542   20.9766 O.3     1  UNL1        0.0000
   2411 O          -1.7484   19.3493   21.0332 O.3     1  UNL1        0.0000
   2412 O           1.0913   27.6352   18.1866 O.3     1  UNL1        0.0000
   2413 N           4.8875   31.1217   40.1854 N.pl3  40  UNL40       0.0000
   2414 N           4.8675   32.9636   41.3518 N.pl3  40  UNL40       0.0000
   2415 C           6.1727   31.3039   40.6732 C.2    40  UNL40       0.0000
   2416 C           6.1581   32.4625   41.4018 C.2    40  UNL40       0.0000
   2417 C           4.5717   35.4154   41.0189 C.3    40  UNL40       0.0000
   2418 C           4.4543   30.0347   39.3030 C.3    40  UNL40       0.0000
   2419 C           4.1111   32.1355   40.6114 C.3    40  UNL40       0.0000
   2420 C           4.3935   34.2255   41.9595 C.3    40  UNL40       0.0000
   2421 H           6.9616   30.5861   40.4857 H      40  UNL40       0.0000
   2422 H           6.9376   32.9521   41.9699 H      40  UNL40       0.0000
   2423 H           5.6239   35.5649   40.7464 H      40  UNL40       0.0000
   2424 H           4.8747   30.1863   38.2999 H      40  UNL40       0.0000
   2425 H           3.9825   35.2847   40.1018 H      40  UNL40       0.0000
   2426 H           4.8229   29.0782   39.6933 H      40  UNL40       0.0000
   2427 H           4.2112   36.3263   41.5176 H      40  UNL40       0.0000
   2428 H           4.9483   34.3455   42.8974 H      40  UNL40       0.0000
   2429 H           3.3580   30.0378   39.2527 H      40  UNL40       0.0000
   2430 H           3.0507   32.2460   40.4232 H      40  UNL40       0.0000
   2431 H           3.3347   34.0840   42.2111 H      40  UNL40       0.0000
   2432 TI         -9.1594   16.7646   37.4121 Ti      1  UNL1        0.0000
   2433 TI          1.6711   19.6459   28.0473 Ti      1  UNL1        0.0000
   2434 TI         -5.0627   12.8284   35.5922 Ti      1  UNL1        0.0000
   2435 TI         -3.5515   21.9906   29.8191 Ti      1  UNL1        0.0000
   2436 TI         -4.5500   23.6689   27.9147 Ti      1  UNL1        0.0000
   2437 TI         -3.1745   12.5741   37.5455 Ti      1  UNL1        0.0000
   2438 TI         -8.2102   15.0288   35.5207 Ti      1  UNL1        0.0000
   2439 TI         -0.3167   19.9484   29.8948 Ti      1  UNL1        0.0000
   2440 H          -8.6575   20.6617   37.1927 H      21  UNL21       0.0000
   2441 H           2.4799   15.7398   28.3680 H       1  UNL1        0.0000
   2442 H         -13.1193   16.0080   37.0297 H      12  UNL12       0.0000
   2443 H           5.0533   21.6502   28.2480 H       1  UNL1        0.0000
   2444 H          -2.1989    8.5396   37.1596 H      17  UNL17       0.0000
   2445 H          -8.6086   23.0790   28.2368 H       1  UNL1        0.0000
   2446 H          -4.0556   22.0321   26.0417 H       1  UNL1        0.0000
   2447 H          -0.2044   19.4032   26.3474 H       1  UNL1        0.0000
   2448 H          -2.6646   11.9070   32.0344 H       1  UNL1        0.0000
   2449 H          -5.2749   23.8276   33.4381 H       1  UNL1        0.0000
   2450 H         -12.2828   18.4174   35.1648 H       1  UNL1        0.0000
   2451 H           4.4259   17.5615   30.3533 H       1  UNL1        0.0000
   2452 H          -9.9817   16.9699   31.8309 H       1  UNL1        0.0000
   2453 H          -7.6501   25.4967   30.2680 H       1  UNL1        0.0000
   2454 H          -4.1578   26.7717   28.7702 H       1  UNL1        0.0000
   2455 H           2.3221   13.7210   29.5705 H       1  UNL1        0.0000
   2456 H          -1.4589   21.6707   28.4805 H       1  UNL1        0.0000
   2457 H          -6.1434   14.6768   36.8858 H       1  UNL1        0.0000
   2458 H           1.0603   14.5090   35.9352 H      22  UNL22       0.0000
   2459 H          -0.4208   14.0399   36.6825 H      22  UNL22       0.0000
   2460 H           1.6344   18.9426   34.8363 H       1  UNL1        0.0000
   2461 H           1.0647   19.3012   33.2178 H       1  UNL1        0.0000
   2462 H           0.5715    9.5541   35.7452 H       1  UNL1        0.0000
   2463 H          -0.7077   10.6547   36.2026 H       1  UNL1        0.0000
   2464 C           2.2492   18.9046   30.9109 C.3     1  UNL1        0.0000
   2465 C         -10.1199   17.0260   34.5651 C.3     1  UNL1        0.0000
   2466 C          -2.4822   11.8177   34.6674 C.3     1  UNL1        0.0000
   2467 C          -5.4876   23.9611   30.7785 C.3     1  UNL1        0.0000
   2468 C           3.1452   18.3003   31.9061 C.ar    1  UNL1        0.0000
   2469 C         -11.0518   17.6510   33.5881 C.ar    1  UNL1        0.0000
   2470 C          -1.5420   11.2034   33.7203 C.ar    1  UNL1        0.0000
   2471 C          -6.3774   24.6079   31.7783 C.2     1  UNL1        0.0000
   2472 C           2.8964   18.3752   33.3125 C.ar    1  UNL1        0.0000
   2473 C         -10.8354   17.5311   32.2000 C.ar    1  UNL1        0.0000
   2474 C          -0.4125   10.4431   34.1733 C.ar    1  UNL1        0.0000
   2475 C          -7.4721   25.3808   31.3334 C.3     1  UNL1        0.0000
   2476 C          -6.1229   24.4371   33.1332 C.2     1  UNL1        0.0000
   2477 C          -1.7897   11.3355   32.3363 C.ar    1  UNL1        0.0000
   2478 C           4.2789   17.6013   31.4304 C.ar    1  UNL1        0.0000
   2479 C         -12.1520   18.3435   34.0868 C.ar    1  UNL1        0.0000
   2480 C           2.4609   15.8189   26.2239 C.ar    1  UNL1        0.0000
   2481 C          -4.0088   27.6105   26.2489 C.2     1  UNL1        0.0000
   2482 C           4.9454   21.5820   26.0979 C.ar    1  UNL1        0.0000
   2483 C          -8.4130   23.1244   26.0785 C.ar    1  UNL1        0.0000
   2484 C          -2.8048   19.6474   31.7837 C.3     1  UNL1        0.0000
   2485 C          -7.5608   12.5530   33.7019 C.3     1  UNL1        0.0000
   2486 C           2.3251   17.2737   26.2007 C.3     1  UNL1        0.0000
   2487 C          -4.1016   26.1769   26.2114 C.2     1  UNL1        0.0000
   2488 C           3.6475   20.9652   26.1448 C.3     1  UNL1        0.0000
   2489 C          -7.0107   23.5388   26.1030 C.3     1  UNL1        0.0000
   2490 C           2.5003   15.1498   27.4536 C.ar    1  UNL1        0.0000
   2491 C          -8.6465   21.2501   38.1066 C.3    41  UNL41       0.0000
   2492 C           5.6007   21.8568   27.3319 C.ar    1  UNL1        0.0000
   2493 C         -13.6807   15.8286   37.9451 C.2    12  UNL12       0.0000
   2494 C           1.0050   14.7843   37.9595 C.2    22  UNL22       0.0000
   2495 C          -9.1102   22.8940   27.2910 C.ar    1  UNL1        0.0000
   2496 C          -2.1572    8.0124   38.1087 C.2    17  UNL17       0.0000
   2497 C          -3.9950   28.3617   27.4782 C.3     1  UNL1        0.0000
   2498 N          -3.9400   27.7628   28.7164 N.3     1  UNL1        0.0000
   2499 N           0.4260   14.6014   36.7206 N.pl3  22  UNL22       0.0000
   2500 N           1.8155   19.0215   33.8438 N.pl3   1  UNL1        0.0000
   2501 N          -0.0815   10.2848   35.4907 N.pl3   1  UNL1        0.0000
   2502 O           1.0728   19.3097   31.2767 O.3     1  UNL1        0.0000
   2503 O          -9.3509   16.0752   34.1668 O.3     1  UNL1        0.0000
   2504 O          -2.1007   11.9422   35.8886 O.3     1  UNL1        0.0000
   2505 O          -5.5535   24.3908   29.5789 O.3     1  UNL1        0.0000
   2506 O          -4.7171   23.0039   31.1650 O.3     1  UNL1        0.0000
   2507 O          -3.6526   12.1862   34.2619 O.3     1  UNL1        0.0000
   2508 O           2.6610   18.9854   29.6991 O.3     1  UNL1        0.0000
   2509 O         -10.1619   17.4623   35.7648 O.3     1  UNL1        0.0000
   2510 O          -0.0115   18.7305   28.7001 O.3     1  UNL1        0.0000
   2511 O          -7.6577   16.5891   36.2652 O.3     1  UNL1        0.0000
   2512 O           0.9273   21.0178   29.1501 O.3     1  UNL1        0.0000
   2513 O          -9.4099   14.8644   36.7579 O.3     1  UNL1        0.0000
   2514 O          -4.8034   11.6565   36.8526 O.3     1  UNL1        0.0000
   2515 O          -3.0349   23.5519   29.0807 O.3     1  UNL1        0.0000
   2516 O          -3.8494   13.9180   36.3884 O.3     1  UNL1        0.0000
   2517 O          -4.7412   21.7948   28.5632 O.3     1  UNL1        0.0000
   2518 O          -2.4321   10.8022   38.1546 O.3     1  UNL1        0.0000
   2519 O          -4.1847   25.4755   27.3066 O.2     1  UNL1        0.0000
   2520 O          -1.6300   13.5904   38.1495 O.3     1  UNL1        0.0000
   2521 O          -6.4206   23.6398   27.2466 O.3     1  UNL1        0.0000
   2522 O           3.1082   20.6650   27.2928 O.3     1  UNL1        0.0000
   2523 O         -11.0461   16.7046   38.0806 O.3     1  UNL1        0.0000
   2524 O           2.3126   17.9107   27.3222 O.3     1  UNL1        0.0000
   2525 O          -8.7779   18.4869   38.1619 O.3     1  UNL1        0.0000
   2526 O          -1.8197   21.1220   29.2012 O.3     1  UNL1        0.0000
   2527 O          -6.5216   14.1181   36.1822 O.3     1  UNL1        0.0000
   2528 O           0.6344   19.8968   26.2684 O.3     1  UNL1        0.0000
   2529 O          -3.9332   22.9989   26.1016 O.3     1  UNL1        0.0000
   2530 H          -2.5796   16.0251   34.7131 H       1  UNL1        0.0000
   2531 H          -6.4543   10.3626   32.5723 H       1  UNL1        0.0000
   2532 H          -1.7131   25.0983   31.2266 H      23  UNL23       0.0000
   2533 H          -1.5880   17.5684   32.9964 H       1  UNL1        0.0000
   2534 H          -6.2847   18.2084   34.5371 H       1  UNL1        0.0000
   2535 H         -10.0820   12.6684   32.7580 H       1  UNL1        0.0000
   2536 H          -4.9187   16.3610   35.4563 H       1  UNL1        0.0000
   2537 H          -5.2937   19.7505   32.8141 H       1  UNL1        0.0000
   2538 H          -0.4276   23.1753   30.3393 H      23  UNL23       0.0000
   2539 H         -14.0750   23.3668   30.9259 H      13  UNL13       0.0000
   2540 C          -3.3837   18.7489   32.8090 C.ar    1  UNL1        0.0000
   2541 C          -4.4865   17.0335   34.7172 C.ar    1  UNL1        0.0000
   2542 C           0.0470   23.8676   31.0334 C.2    23  UNL23       0.0000
   2543 C          -8.2033   11.6116   32.7475 C.ar    1  UNL1        0.0000
   2544 C          -4.7117   18.9351   33.2386 C.ar    1  UNL1        0.0000
   2545 C          -3.1645   16.8429   34.2951 C.ar    1  UNL1        0.0000
   2546 C          -0.6752   24.9609   31.5272 C.2    23  UNL23       0.0000
   2547 C          -7.4861   10.5044   32.2565 C.ar    1  UNL1        0.0000
   2548 C           1.3800   23.6651   31.4122 C.3    23  UNL23       0.0000
   2549 C          -9.5425   11.8104   32.3616 C.ar    1  UNL1        0.0000
   2550 C          -2.6109   17.6996   33.3429 C.ar    1  UNL1        0.0000
   2551 C          -5.2598   18.0774   34.1933 C.ar    1  UNL1        0.0000
   2552 O          -1.5827   19.4703   31.4280 O.3     1  UNL1        0.0000
   2553 O          -8.2216   13.5878   34.0712 O.3     1  UNL1        0.0000
   2554 O          -6.3831   12.2829   34.1278 O.3     1  UNL1        0.0000
   2555 O          -3.5433   20.5687   31.2812 O.3     1  UNL1        0.0000
   2556 N           0.2528   24.0553   53.2800 N.pl3  42  UNL42       0.0000
   2557 N           0.2328   25.8971   54.4465 N.pl3  42  UNL42       0.0000
   2558 C           1.5380   24.2375   53.7678 C.2    42  UNL42       0.0000
   2559 C           1.5234   25.3961   54.4964 C.2    42  UNL42       0.0000
   2560 C          -0.0630   28.3490   54.1135 C.3    42  UNL42       0.0000
   2561 C          -0.1804   22.9683   52.3976 C.3    42  UNL42       0.0000
   2562 C          -0.5235   25.0691   53.7060 C.3    42  UNL42       0.0000
   2563 C          -0.2411   27.1590   55.0541 C.3    42  UNL42       0.0000
   2564 H           2.3270   23.5197   53.5803 H      42  UNL42       0.0000
   2565 H           2.3029   25.8857   55.0645 H      42  UNL42       0.0000
   2566 H           0.9892   28.4985   53.8411 H      42  UNL42       0.0000
   2567 H           0.2401   23.1198   51.3945 H      42  UNL42       0.0000
   2568 H          -0.6522   28.2182   53.1964 H      42  UNL42       0.0000
   2569 H           0.1882   22.0118   52.7879 H      42  UNL42       0.0000
   2570 H          -0.4234   29.2598   54.6123 H      42  UNL42       0.0000
   2571 H           0.3137   27.2790   55.9921 H      42  UNL42       0.0000
   2572 H          -1.2767   22.9713   52.3473 H      42  UNL42       0.0000
   2573 H          -1.5840   25.1795   53.5178 H      42  UNL42       0.0000
   2574 H          -1.2999   27.0176   55.3057 H      42  UNL42       0.0000
   2575 TI         29.1434    1.1152   11.4255 Ti      1  UNL1        0.0000
   2576 TI         39.9739    3.9964    2.0607 Ti      1  UNL1        0.0000
   2577 TI         33.2401   -2.8210    9.6056 Ti      1  UNL1        0.0000
   2578 TI         34.7513    6.3412    3.8325 Ti      1  UNL1        0.0000
   2579 TI         33.7527    8.0195    1.9281 Ti      1  UNL1        0.0000
   2580 TI         35.1283   -3.0753   11.5589 Ti      1  UNL1        0.0000
   2581 TI         30.0926   -0.6207    9.5341 Ti      1  UNL1        0.0000
   2582 TI         37.9861    4.2990    3.9082 Ti      1  UNL1        0.0000
   2583 H          29.6453    5.0123   11.2061 H       1  UNL1        0.0000
   2584 H          40.7827    0.0904    2.3814 H       1  UNL1        0.0000
   2585 H          25.1835    0.3586   11.0431 H       1  UNL1        0.0000
   2586 H          43.3561    6.0007    2.2614 H       1  UNL1        0.0000
   2587 H          36.1039   -7.1098   11.1730 H       1  UNL1        0.0000
   2588 H          29.6942    7.4296    2.2502 H       1  UNL1        0.0000
   2589 H          34.2472    6.3827    0.0551 H       1  UNL1        0.0000
   2590 H          38.0984    3.7538    0.3608 H       1  UNL1        0.0000
   2591 H          35.6382   -3.7424    6.0478 H       1  UNL1        0.0000
   2592 H          33.0279    8.1782    7.4515 H       1  UNL1        0.0000
   2593 H          26.0200    2.7680    9.1781 H       1  UNL1        0.0000
   2594 H          42.7287    1.9121    4.3667 H       1  UNL1        0.0000
   2595 H          28.3211    1.3205    5.8443 H       1  UNL1        0.0000
   2596 H          30.6527    9.8473    4.2814 H       1  UNL1        0.0000
   2597 H          34.1450   11.1223    2.7836 H       1  UNL1        0.0000
   2598 H          40.6249   -1.9284    3.5839 H      54  UNL54       0.0000
   2599 H          36.8439    6.0213    2.4939 H       1  UNL1        0.0000
   2600 H          32.1594   -0.9726   10.8992 H       1  UNL1        0.0000
   2601 H          39.3631   -1.1405    9.9486 H       1  UNL1        0.0000
   2602 H          37.8819   -1.6095   10.6959 H       1  UNL1        0.0000
   2603 H          39.9372    3.2932    8.8497 H       1  UNL1        0.0000
   2604 H          39.3675    3.6518    7.2311 H       1  UNL1        0.0000
   2605 H          38.8743   -6.0953    9.7586 H       1  UNL1        0.0000
   2606 H          37.5951   -4.9947   10.2159 H       1  UNL1        0.0000
   2607 C          40.5519    3.2552    4.9243 C.2     1  UNL1        0.0000
   2608 C          28.1829    1.3766    8.5785 C.3     1  UNL1        0.0000
   2609 C          35.8206   -3.8317    8.6808 C.3     1  UNL1        0.0000
   2610 C          32.8152    8.3117    4.7919 C.3     1  UNL1        0.0000
   2611 C          41.4480    2.6509    5.9194 C.2     1  UNL1        0.0000
   2612 C          27.2510    2.0016    7.6015 C.ar    1  UNL1        0.0000
   2613 C          36.7608   -4.4460    7.7336 C.2     1  UNL1        0.0000
   2614 C          31.9254    8.9585    5.7917 C.ar    1  UNL1        0.0000
   2615 C          41.1992    2.7258    7.3259 C.3     1  UNL1        0.0000
   2616 C          27.4674    1.8817    6.2134 C.ar    1  UNL1        0.0000
   2617 C          37.8903   -5.2063    8.1867 C.2     1  UNL1        0.0000
   2618 C          30.8307    9.7314    5.3467 C.ar    1  UNL1        0.0000
   2619 C          32.1799    8.7877    7.1466 C.ar    1  UNL1        0.0000
   2620 C          36.5131   -4.3139    6.3497 C.3     1  UNL1        0.0000
   2621 C          42.5816    1.9519    5.4437 C.3     1  UNL1        0.0000
   2622 C          26.1508    2.6940    8.1001 C.ar    1  UNL1        0.0000
   2623 C          40.7637    0.1695    0.2373 C.2     1  UNL1        0.0000
   2624 C          34.2940   11.9611    0.2623 C.2     1  UNL1        0.0000
   2625 C          43.2482    5.9326    0.1113 C.2     1  UNL1        0.0000
   2626 C          29.8898    7.4750    0.0919 C.2     1  UNL1        0.0000
   2627 C          35.4980    3.9980    5.7971 C.3     1  UNL1        0.0000
   2628 C          30.7419   -3.0964    7.7153 C.2     1  UNL1        0.0000
   2629 C          40.6279    1.6243    0.2141 C.2     1  UNL1        0.0000
   2630 C          34.2012   10.5275    0.2248 C.2     1  UNL1        0.0000
   2631 C          41.9503    5.3157    0.1582 C.2     1  UNL1        0.0000
   2632 C          31.2921    7.8894    0.1164 C.2     1  UNL1        0.0000
   2633 C          40.8031   -0.4997    1.4670 C.3     1  UNL1        0.0000
   2634 C          29.6562    5.6007   12.1200 C.ar    1  UNL1        0.0000
   2635 C          43.9035    6.2074    1.3453 C.3     1  UNL1        0.0000
   2636 C          24.6220    0.1792   11.9584 C.ar    1  UNL1        0.0000
   2637 C          39.3078   -0.8651   11.9729 C.3     1  UNL1        0.0000
   2638 C          29.1926    7.2446    1.3044 C.2     1  UNL1        0.0000
   2639 C          36.1456   -7.6370   12.1221 C.3     1  UNL1        0.0000
   2640 C          34.3078   12.7122    1.4916 C.2     1  UNL1        0.0000
   2641 N          34.3628   12.1134    2.7298 N.pl3   1  UNL1        0.0000
   2642 N          38.7288   -1.0480   10.7340 N.3     1  UNL1        0.0000
   2643 N          40.1183    3.3720    7.8572 N.3     1  UNL1        0.0000
   2644 N          38.2213   -5.3646    9.5041 N.pl3   1  UNL1        0.0000
   2645 O          39.3756    3.6603    5.2900 O.2     1  UNL1        0.0000
   2646 O          28.9519    0.4258    8.1802 O.3     1  UNL1        0.0000
   2647 O          36.2021   -3.7072    9.9019 O.3     1  UNL1        0.0000
   2648 O          32.7493    8.7413    3.5923 O.3     1  UNL1        0.0000
   2649 O          33.5857    7.3545    5.1783 O.3     1  UNL1        0.0000
   2650 O          34.6502   -3.4632    8.2753 O.3     1  UNL1        0.0000
   2651 O          40.9638    3.3360    3.7125 O.2     1  UNL1        0.0000
   2652 O          28.1409    1.8129    9.7782 O.3     1  UNL1        0.0000
   2653 O          38.2913    3.0811    2.7135 O.3     1  UNL1        0.0000
   2654 O          30.6451    0.9397   10.2786 O.3     1  UNL1        0.0000
   2655 O          39.2301    5.3684    3.1635 O.3     1  UNL1        0.0000
   2656 O          28.8929   -0.7850   10.7712 O.3     1  UNL1        0.0000
   2657 O          33.4994   -3.9929   10.8660 O.3     1  UNL1        0.0000
   2658 O          35.2679    7.9025    3.0940 O.3     1  UNL1        0.0000
   2659 O          34.4534   -1.7314   10.4018 O.3     1  UNL1        0.0000
   2660 O          33.5616    6.1454    2.5766 O.3     1  UNL1        0.0000
   2661 O          35.8707   -4.8472   12.1680 O.2     1  UNL1        0.0000
   2662 O          34.1181    9.8261    1.3200 O.2     1  UNL1        0.0000
   2663 O          36.6728   -2.0590   12.1629 O.2     1  UNL1        0.0000
   2664 O          31.8822    7.9904    1.2600 O.2     1  UNL1        0.0000
   2665 O          41.4110    5.0156    1.3062 O.2     1  UNL1        0.0000
   2666 O          27.2567    1.0552   12.0940 O.3     1  UNL1        0.0000
   2667 O          40.6154    2.2612    1.3356 O.2     1  UNL1        0.0000
   2668 O          29.5249    2.8375   12.1752 O.3     1  UNL1        0.0000
   2669 O          36.4831    5.4725    3.2146 O.3     1  UNL1        0.0000
   2670 O          31.7812   -1.5313   10.1956 O.3     1  UNL1        0.0000
   2671 O          38.9372    4.2474    0.2818 O.3     1  UNL1        0.0000
   2672 O          34.3696    7.3495    0.1150 O.3     1  UNL1        0.0000
   2673 H          35.7232    0.3756    8.7264 H       1  UNL1        0.0000
   2674 H          31.8484   -5.2868    6.5857 H       1  UNL1        0.0000
   2675 H          36.5897    9.4488    5.2399 H      24  UNL24       0.0000
   2676 H          36.7148    1.9190    7.0098 H       1  UNL1        0.0000
   2677 H          32.0181    2.5590    8.5505 H       1  UNL1        0.0000
   2678 H          28.2208   -2.9811    6.7714 H       1  UNL1        0.0000
   2679 H          33.3841    0.7116    9.4697 H       1  UNL1        0.0000
   2680 H          33.0091    4.1011    6.8275 H       1  UNL1        0.0000
   2681 H          37.8752    7.5259    4.3527 H      24  UNL24       0.0000
   2682 H          24.2278    7.7174    4.9393 H       1  UNL1        0.0000
   2683 C          34.9191    3.0995    6.8224 C.ar    1  UNL1        0.0000
   2684 C          33.8163    1.3841    8.7306 C.ar    1  UNL1        0.0000
   2685 C          38.3498    8.2181    5.0468 C.2    24  UNL24       0.0000
   2686 C          30.0995   -4.0378    6.7609 C.2     1  UNL1        0.0000
   2687 C          33.5911    3.2857    7.2520 C.ar    1  UNL1        0.0000
   2688 C          35.1382    1.1935    8.3085 C.ar    1  UNL1        0.0000
   2689 C          37.6275    9.3115    5.5406 C.2    24  UNL24       0.0000
   2690 C          30.8167   -5.1450    6.2699 C.3     1  UNL1        0.0000
   2691 C          39.6827    8.0157    5.4256 C.3    24  UNL24       0.0000
   2692 C          28.7603   -3.8390    6.3750 C.3     1  UNL1        0.0000
   2693 C          35.6918    2.0502    7.3563 C.ar    1  UNL1        0.0000
   2694 C          33.0430    2.4279    8.2067 C.ar    1  UNL1        0.0000
   2695 O          36.7201    3.8208    5.4414 O.3     1  UNL1        0.0000
   2696 O          30.0812   -2.0616    8.0846 O.2     1  UNL1        0.0000
   2697 O          31.9197   -3.3665    8.1412 O.2     1  UNL1        0.0000
   2698 O          34.7595    4.9193    5.2946 O.3     1  UNL1        0.0000
   2699 N          38.5556    8.4058   27.2934 N.pl3  44  UNL44       0.0000
   2700 N          38.5356   10.2477   28.4598 N.pl3  44  UNL44       0.0000
   2701 C          39.8408    8.5881   27.7812 C.2    44  UNL44       0.0000
   2702 C          39.8262    9.7467   28.5098 C.2    44  UNL44       0.0000
   2703 C          38.2398   12.6996   28.1269 C.3    44  UNL44       0.0000
   2704 C          38.1224    7.3188   26.4110 C.3    44  UNL44       0.0000
   2705 C          37.7793    9.4197   27.7194 C.3    44  UNL44       0.0000
   2706 C          38.0617   11.5096   29.0675 C.3    44  UNL44       0.0000
   2707 H          40.6298    7.8703   27.5937 H      44  UNL44       0.0000
   2708 H          40.6057   10.2362   29.0779 H      44  UNL44       0.0000
   2709 H          39.2920   12.8491   27.8544 H      44  UNL44       0.0000
   2710 H          38.5428    7.4704   25.4079 H      44  UNL44       0.0000
   2711 H          37.6506   12.5688   27.2098 H      44  UNL44       0.0000
   2712 H          38.4910    6.3624   26.8013 H      44  UNL44       0.0000
   2713 H          37.8794   13.6104   28.6256 H      44  UNL44       0.0000
   2714 H          38.6165   11.6296   30.0054 H      44  UNL44       0.0000
   2715 H          37.0261    7.3219   26.3607 H      44  UNL44       0.0000
   2716 H          36.7188    9.5301   27.5312 H      44  UNL44       0.0000
   2717 H          37.0029   11.3682   29.3191 H      44  UNL44       0.0000
   2718 TI         24.5088   -5.9512   24.5201 Ti      1  UNL1        0.0000
   2719 TI         35.3393   -3.0700   15.1553 Ti      1  UNL1        0.0000
   2720 TI         28.6055   -9.8874   22.7002 Ti      1  UNL1        0.0000
   2721 TI         30.1167   -0.7253   16.9271 Ti      1  UNL1        0.0000
   2722 TI         29.1181    0.9530   15.0227 Ti      1  UNL1        0.0000
   2723 TI         30.4937  -10.1417   24.6535 Ti      1  UNL1        0.0000
   2724 TI         25.4580   -7.6871   22.6287 Ti      1  UNL1        0.0000
   2725 TI         33.3514   -2.7674   17.0028 Ti      1  UNL1        0.0000
   2726 H          25.0107   -2.0541   24.3007 H       1  UNL1        0.0000
   2727 H          36.1480   -6.9760   15.4760 H       1  UNL1        0.0000
   2728 H          20.5489   -6.7078   24.1377 H       1  UNL1        0.0000
   2729 H          38.7214   -1.0657   15.3560 H       1  UNL1        0.0000
   2730 H          31.4693  -14.1763   24.2676 H       1  UNL1        0.0000
   2731 H          25.0596    0.3631   15.3448 H       1  UNL1        0.0000
   2732 H          29.6126   -0.6838   13.1497 H       1  UNL1        0.0000
   2733 H          33.4637   -3.3127   13.4554 H       1  UNL1        0.0000
   2734 H          31.0036  -10.8089   19.1424 H       1  UNL1        0.0000
   2735 H          28.3932    1.1118   20.5461 H       1  UNL1        0.0000
   2736 H          21.3854   -4.2985   22.2728 H       1  UNL1        0.0000
   2737 H          38.0940   -5.1543   17.4613 H       1  UNL1        0.0000
   2738 H          23.6865   -5.7459   18.9389 H       1  UNL1        0.0000
   2739 H          26.0180    2.7809   17.3760 H       1  UNL1        0.0000
   2740 H          29.5103    4.0559   15.8782 H       1  UNL1        0.0000
   2741 H          35.9902   -8.9949   16.6785 H      54  UNL54       0.0000
   2742 H          32.2093   -1.0451   15.5885 H       1  UNL1        0.0000
   2743 H          27.5248   -8.0390   23.9938 H       1  UNL1        0.0000
   2744 H          34.7284   -8.2069   23.0432 H       1  UNL1        0.0000
   2745 H          33.2473   -8.6760   23.7905 H       1  UNL1        0.0000
   2746 H          35.3025   -3.7733   21.9443 H       1  UNL1        0.0000
   2747 H          34.7328   -3.4147   20.3257 H       1  UNL1        0.0000
   2748 H          34.2396  -13.1617   22.8532 H       1  UNL1        0.0000
   2749 H          32.9605  -12.0611   23.3106 H       1  UNL1        0.0000
   2750 C          35.9173   -3.8112   18.0189 C.2     1  UNL1        0.0000
   2751 C          23.5482   -5.6898   21.6731 C.3     1  UNL1        0.0000
   2752 C          31.1860  -10.8981   21.7754 C.3     1  UNL1        0.0000
   2753 C          28.1806    1.2452   17.8865 C.3     1  UNL1        0.0000
   2754 C          36.8133   -4.4155   19.0141 C.2     1  UNL1        0.0000
   2755 C          22.6163   -5.0648   20.6961 C.ar    1  UNL1        0.0000
   2756 C          32.1262  -11.5125   20.8283 C.2     1  UNL1        0.0000
   2757 C          27.2907    1.8920   18.8863 C.ar    1  UNL1        0.0000
   2758 C          36.5646   -4.3406   20.4205 C.3     1  UNL1        0.0000
   2759 C          22.8327   -5.1848   19.3080 C.ar    1  UNL1        0.0000
   2760 C          33.2556  -12.2728   21.2813 C.2     1  UNL1        0.0000
   2761 C          26.1960    2.6650   18.4414 C.ar    1  UNL1        0.0000
   2762 C          27.5452    1.7213   20.2412 C.ar    1  UNL1        0.0000
   2763 C          31.8785  -11.3803   19.4443 C.3     1  UNL1        0.0000
   2764 C          37.9470   -5.1145   18.5383 C.3     1  UNL1        0.0000
   2765 C          21.5162   -4.3724   21.1947 C.ar    1  UNL1        0.0000
   2766 C          36.1291   -6.8970   13.3319 C.2     1  UNL1        0.0000
   2767 C          29.6593    4.8946   13.3569 C.ar    1  UNL1        0.0000
   2768 C          38.6135   -1.1339   13.2059 C.2     1  UNL1        0.0000
   2769 C          25.2552    0.4086   13.1865 C.ar    1  UNL1        0.0000
   2770 C          30.8634   -3.0684   18.8917 C.3     1  UNL1        0.0000
   2771 C          26.1073  -10.1628   20.8099 C.2     1  UNL1        0.0000
   2772 C          35.9932   -5.4421   13.3087 C.2     1  UNL1        0.0000
   2773 C          29.5666    3.4611   13.3194 C.3     1  UNL1        0.0000
   2774 C          37.3157   -1.7507   13.2528 C.2     1  UNL1        0.0000
   2775 C          26.6575    0.8229   13.2110 C.3     1  UNL1        0.0000
   2776 C          36.1684   -7.5661   14.5616 C.3     1  UNL1        0.0000
   2777 C          25.0216   -1.4657   25.2146 C.ar    1  UNL1        0.0000
   2778 C          39.2688   -0.8591   14.4399 C.3     1  UNL1        0.0000
   2779 C          19.9874   -6.8872   25.0530 C.ar    1  UNL1        0.0000
   2780 C          34.6732   -7.9316   25.0675 C.3     1  UNL1        0.0000
   2781 C          24.5580    0.1782   14.3990 C.ar    1  UNL1        0.0000
   2782 C          31.5109  -14.7034   25.2167 C.3     1  UNL1        0.0000
   2783 C          29.6731    5.6458   14.5862 C.ar    1  UNL1        0.0000
   2784 N          29.7282    5.0470   15.8244 N.pl3   1  UNL1        0.0000
   2785 N          34.0941   -8.1144   23.8286 N.3     1  UNL1        0.0000
   2786 N          35.4837   -3.6944   20.9518 N.3     1  UNL1        0.0000
   2787 N          33.5866  -12.4310   22.5987 N.pl3   1  UNL1        0.0000
   2788 O          34.7410   -3.4061   18.3847 O.2     1  UNL1        0.0000
   2789 O          24.3172   -6.6407   21.2748 O.3     1  UNL1        0.0000
   2790 O          31.5674  -10.7736   22.9966 O.3     1  UNL1        0.0000
   2791 O          28.1147    1.6749   16.6869 O.3     1  UNL1        0.0000
   2792 O          28.9510    0.2880   18.2729 O.3     1  UNL1        0.0000
   2793 O          30.0156  -10.5297   21.3699 O.3     1  UNL1        0.0000
   2794 O          36.3292   -3.7305   16.8071 O.2     1  UNL1        0.0000
   2795 O          23.5062   -5.2536   22.8728 O.3     1  UNL1        0.0000
   2796 O          33.6567   -3.9853   15.8081 O.3     1  UNL1        0.0000
   2797 O          26.0105   -6.1267   23.3732 O.3     1  UNL1        0.0000
   2798 O          34.5955   -1.6981   16.2581 O.3     1  UNL1        0.0000
   2799 O          24.2583   -7.8514   23.8659 O.3     1  UNL1        0.0000
   2800 O          28.8648  -11.0594   23.9606 O.3     1  UNL1        0.0000
   2801 O          30.6332    0.8360   16.1887 O.3     1  UNL1        0.0000
   2802 O          29.8187   -8.7979   23.4964 O.3     1  UNL1        0.0000
   2803 O          28.9270   -0.9211   15.6712 O.3     1  UNL1        0.0000
   2804 O          31.2360  -11.9136   25.2626 O.2     1  UNL1        0.0000
   2805 O          29.4835    2.7597   14.4146 O.3     1  UNL1        0.0000
   2806 O          32.0382   -9.1254   25.2575 O.2     1  UNL1        0.0000
   2807 O          27.2475    0.9239   14.3546 O.3     1  UNL1        0.0000
   2808 O          36.7763   -2.0509   14.4008 O.2     1  UNL1        0.0000
   2809 O          22.6220   -6.0113   25.1886 O.3     1  UNL1        0.0000
   2810 O          35.9808   -4.8052   14.4302 O.2     1  UNL1        0.0000
   2811 O          24.8902   -4.2289   25.2699 O.3     1  UNL1        0.0000
   2812 O          31.8485   -1.5939   16.3092 O.3     1  UNL1        0.0000
   2813 O          27.1465   -8.5977   23.2902 O.3     1  UNL1        0.0000
   2814 O          34.3026   -2.8190   13.3764 O.3     1  UNL1        0.0000
   2815 O          29.7349    0.2830   13.2096 O.3     1  UNL1        0.0000
   2816 H          31.0885   -6.6908   21.8211 H       1  UNL1        0.0000
   2817 H          27.2138  -12.3533   19.6803 H       1  UNL1        0.0000
   2818 H          31.9550    2.3824   18.3346 H      25  UNL25       0.0000
   2819 H          32.0802   -5.1475   20.1044 H       1  UNL1        0.0000
   2820 H          27.3835   -4.5074   21.6451 H       1  UNL1        0.0000
   2821 H          23.5861  -10.0475   19.8660 H       1  UNL1        0.0000
   2822 H          28.7495   -6.3549   22.5643 H       1  UNL1        0.0000
   2823 H          28.3745   -2.9653   19.9221 H       1  UNL1        0.0000
   2824 H          33.2405    0.4595   17.4473 H      25  UNL25       0.0000
   2825 H          19.5932    0.6509   18.0339 H       1  UNL1        0.0000
   2826 C          30.2844   -3.9669   19.9170 C.ar    1  UNL1        0.0000
   2827 C          29.1816   -5.6823   21.8252 C.ar    1  UNL1        0.0000
   2828 C          33.7151    1.1517   18.1414 C.2    25  UNL25       0.0000
   2829 C          25.4649  -11.1043   19.8555 C.2     1  UNL1        0.0000
   2830 C          28.9564   -3.7808   20.3466 C.ar    1  UNL1        0.0000
   2831 C          30.5036   -5.8729   21.4031 C.ar    1  UNL1        0.0000
   2832 C          32.9929    2.2451   18.6352 C.2    25  UNL25       0.0000
   2833 C          26.1820  -12.2115   19.3645 C.3     1  UNL1        0.0000
   2834 C          35.0481    0.9493   18.5202 C.3    25  UNL25       0.0000
   2835 C          24.1256  -10.9055   19.4696 C.3     1  UNL1        0.0000
   2836 C          31.0572   -5.0163   20.4509 C.ar    1  UNL1        0.0000
   2837 C          28.4084   -4.6385   21.3013 C.ar    1  UNL1        0.0000
   2838 O          32.0855   -3.2456   18.5360 O.3     1  UNL1        0.0000
   2839 O          25.4465   -9.1281   21.1792 O.2     1  UNL1        0.0000
   2840 O          27.2851  -10.4330   21.2358 O.2     1  UNL1        0.0000
   2841 O          30.1248   -2.1471   18.3892 O.3     1  UNL1        0.0000
   2842 N          33.9210    1.3394   40.3880 N.pl3  46  UNL46       0.0000
   2843 N          33.9010    3.1813   41.5545 N.pl3  46  UNL46       0.0000
   2844 C          35.2062    1.5216   40.8758 C.2    46  UNL46       0.0000
   2845 C          35.1916    2.6803   41.6044 C.2    46  UNL46       0.0000
   2846 C          33.6052    5.6331   41.2215 C.3    46  UNL46       0.0000
   2847 C          33.4878    0.2524   39.5056 C.3    46  UNL46       0.0000
   2848 C          33.1446    2.3533   40.8140 C.3    46  UNL46       0.0000
   2849 C          33.4270    4.4432   42.1621 C.3    46  UNL46       0.0000
   2850 H          35.9951    0.8038   40.6883 H      46  UNL46       0.0000
   2851 H          35.9711    3.1698   42.1725 H      46  UNL46       0.0000
   2852 H          34.6574    5.7826   40.9490 H      46  UNL46       0.0000
   2853 H          33.9082    0.4040   38.5025 H      46  UNL46       0.0000
   2854 H          33.0160    5.5024   40.3044 H      46  UNL46       0.0000
   2855 H          33.8564   -0.7041   39.8959 H      46  UNL46       0.0000
   2856 H          33.2447    6.5440   41.7202 H      46  UNL46       0.0000
   2857 H          33.9818    4.5632   43.1001 H      46  UNL46       0.0000
   2858 H          32.3915    0.2555   39.4553 H      46  UNL46       0.0000
   2859 H          32.0842    2.4637   40.6258 H      46  UNL46       0.0000
   2860 H          32.3682    4.3017   42.4137 H      46  UNL46       0.0000
   2861 TI         19.8741  -13.0176   37.6148 Ti      1  UNL1        0.0000
   2862 TI         30.7046  -10.1364   28.2499 Ti      1  UNL1        0.0000
   2863 TI         23.9708  -16.9538   35.7948 Ti      1  UNL1        0.0000
   2864 TI         25.4820   -7.7917   30.0217 Ti      1  UNL1        0.0000
   2865 TI         24.4834   -6.1134   28.1174 Ti      1  UNL1        0.0000
   2866 TI         25.8590  -17.2082   37.7481 Ti      1  UNL1        0.0000
   2867 TI         20.8233  -14.7535   35.7233 Ti      1  UNL1        0.0000
   2868 TI         28.7168   -9.8339   30.0974 Ti      1  UNL1        0.0000
   2869 H          20.3760   -9.1206   37.3953 H      26  UNL26       0.0000
   2870 H          31.5134  -14.0425   28.5706 H       1  UNL1        0.0000
   2871 H          15.9142  -13.7743   37.2323 H      15  UNL15       0.0000
   2872 H          34.0868   -8.1321   28.4506 H       1  UNL1        0.0000
   2873 H          26.8346  -21.2427   37.3622 H      28  UNL28       0.0000
   2874 H          20.4249   -6.7033   28.4394 H       1  UNL1        0.0000
   2875 H          24.9779   -7.7502   26.2443 H       1  UNL1        0.0000
   2876 H          28.8291  -10.3791   26.5500 H       1  UNL1        0.0000
   2877 H          26.3689  -17.8753   32.2370 H       1  UNL1        0.0000
   2878 H          23.7586   -5.9547   33.6407 H       1  UNL1        0.0000
   2879 H          16.7507  -11.3649   35.3674 H       1  UNL1        0.0000
   2880 H          33.4594  -12.2208   30.5559 H       1  UNL1        0.0000
   2881 H          19.0518  -12.8123   32.0335 H       1  UNL1        0.0000
   2882 H          21.3834   -4.2855   30.4706 H       1  UNL1        0.0000
   2883 H          24.8757   -3.0106   28.9728 H       1  UNL1        0.0000
   2884 H          31.3556  -16.0613   29.7731 H      54  UNL54       0.0000
   2885 H          27.5746   -8.1116   28.6831 H       1  UNL1        0.0000
   2886 H          22.8901  -15.1054   37.0884 H       1  UNL1        0.0000
   2887 H          30.0938  -15.2733   36.1378 H      27  UNL27       0.0000
   2888 H          28.6127  -15.7424   36.8851 H      27  UNL27       0.0000
   2889 H          30.6679  -10.8397   35.0389 H       1  UNL1        0.0000
   2890 H          30.0982  -10.4811   33.4204 H       1  UNL1        0.0000
   2891 H          29.6050  -20.2282   35.9478 H       1  UNL1        0.0000
   2892 H          28.3258  -19.1276   36.4052 H       1  UNL1        0.0000
   2893 C          31.2827  -10.8777   31.1135 C.2     1  UNL1        0.0000
   2894 C          18.9136  -12.7563   34.7677 C.3     1  UNL1        0.0000
   2895 C          26.5513  -17.9645   34.8701 C.3     1  UNL1        0.0000
   2896 C          23.5459   -5.8212   30.9811 C.3     1  UNL1        0.0000
   2897 C          32.1787  -11.4820   32.1087 C.2     1  UNL1        0.0000
   2898 C          17.9817  -12.1312   33.7907 C.ar    1  UNL1        0.0000
   2899 C          27.4915  -18.5789   33.9229 C.2     1  UNL1        0.0000
   2900 C          22.6561   -5.1744   31.9809 C.ar    1  UNL1        0.0000
   2901 C          31.9299  -11.4071   33.5151 C.3     1  UNL1        0.0000
   2902 C          18.1981  -12.2512   32.4027 C.ar    1  UNL1        0.0000
   2903 C          28.6210  -19.3392   34.3759 C.2     1  UNL1        0.0000
   2904 C          21.5614   -4.4014   31.5360 C.ar    1  UNL1        0.0000
   2905 C          22.9106   -5.3452   33.3358 C.ar    1  UNL1        0.0000
   2906 C          27.2438  -18.4468   32.5389 C.3     1  UNL1        0.0000
   2907 C          33.3124  -12.1810   31.6330 C.3     1  UNL1        0.0000
   2908 C          16.8815  -11.4388   34.2894 C.ar    1  UNL1        0.0000
   2909 C          31.4944  -13.9634   26.4265 C.2     1  UNL1        0.0000
   2910 C          25.0247   -2.1718   26.4515 C.ar    1  UNL1        0.0000
   2911 C          33.9789   -8.2003   26.3005 C.2     1  UNL1        0.0000
   2912 C          20.6205   -6.6579   26.2811 C.ar    1  UNL1        0.0000
   2913 C          26.2287  -10.1349   31.9863 C.3     1  UNL1        0.0000
   2914 C          21.4727  -17.2293   33.9045 C.2     1  UNL1        0.0000
   2915 C          31.3586  -12.5086   26.4033 C.2     1  UNL1        0.0000
   2916 C          24.9319   -3.6053   26.4141 C.3     1  UNL1        0.0000
   2917 C          32.6810   -8.8171   26.3474 C.2     1  UNL1        0.0000
   2918 C          22.0228   -6.2435   26.3056 C.3     1  UNL1        0.0000
   2919 C          31.5338  -14.6325   27.6562 C.3     1  UNL1        0.0000
   2920 C          20.3869   -8.5322   38.3092 C.2    26  UNL26       0.0000
   2921 C          34.6342   -7.9255   27.5345 C.3     1  UNL1        0.0000
   2922 C          15.3528  -13.9536   38.1477 C.2    15  UNL15       0.0000
   2923 C          30.0385  -14.9980   38.1622 C.3    27  UNL27       0.0000
   2924 C          19.9233   -6.8883   27.4936 C.ar    1  UNL1        0.0000
   2925 C          26.8763  -21.7699   38.3113 C.3    48  UNL48       0.0000
   2926 C          25.0385   -1.4206   27.6808 C.ar    1  UNL1        0.0000
   2927 N          25.0935   -2.0195   28.9190 N.pl3   1  UNL1        0.0000
   2928 N          29.4595  -15.1808   36.9232 N.3    27  UNL27       0.0000
   2929 N          30.8490  -10.7608   34.0464 N.3     1  UNL1        0.0000
   2930 N          28.9520  -19.4974   35.6933 N.pl3   1  UNL1        0.0000
   2931 O          30.1063  -10.4726   31.4793 O.2     1  UNL1        0.0000
   2932 O          19.6826  -13.7071   34.3694 O.3     1  UNL1        0.0000
   2933 O          26.9328  -17.8401   36.0912 O.3     1  UNL1        0.0000
   2934 O          23.4800   -5.3915   29.7815 O.3     1  UNL1        0.0000
   2935 O          24.3164   -6.7784   31.3676 O.3     1  UNL1        0.0000
   2936 O          25.3809  -17.5961   34.4645 O.3     1  UNL1        0.0000
   2937 O          31.6945  -10.7969   29.9017 O.2     1  UNL1        0.0000
   2938 O          18.8716  -12.3200   35.9674 O.3     1  UNL1        0.0000
   2939 O          29.0220  -11.0518   28.9027 O.3     1  UNL1        0.0000
   2940 O          21.3758  -13.1932   36.4678 O.3     1  UNL1        0.0000
   2941 O          29.9608   -8.7645   29.3527 O.3     1  UNL1        0.0000
   2942 O          19.6236  -14.9179   36.9605 O.3     1  UNL1        0.0000
   2943 O          24.2301  -18.1258   37.0552 O.3     1  UNL1        0.0000
   2944 O          25.9986   -6.2304   29.2833 O.3     1  UNL1        0.0000
   2945 O          25.1841  -15.8643   36.5910 O.3     1  UNL1        0.0000
   2946 O          24.2923   -7.9875   28.7658 O.3     1  UNL1        0.0000
   2947 O          26.6014  -18.9800   38.3572 O.3     1  UNL1        0.0000
   2948 O          24.8488   -4.3068   27.5092 O.3     1  UNL1        0.0000
   2949 O          27.4035  -16.1919   38.3521 O.3     1  UNL1        0.0000
   2950 O          22.6129   -6.1425   27.4492 O.3     1  UNL1        0.0000
   2951 O          32.1417   -9.1173   27.4954 O.2     1  UNL1        0.0000
   2952 O          17.9874  -13.0777   38.2832 O.3     1  UNL1        0.0000
   2953 O          31.3461  -11.8716   27.5248 O.2     1  UNL1        0.0000
   2954 O          20.2556  -11.2954   38.3645 O.3     1  UNL1        0.0000
   2955 O          27.2138   -8.6603   29.4038 O.3     1  UNL1        0.0000
   2956 O          22.5119  -15.6641   36.3848 O.3     1  UNL1        0.0000
   2957 O          29.6679   -9.8855   26.4710 O.3     1  UNL1        0.0000
   2958 O          25.1003   -6.7834   26.3042 O.3     1  UNL1        0.0000
   2959 H          26.4539  -13.7572   34.9157 H       1  UNL1        0.0000
   2960 H          22.5792  -19.4197   32.7749 H       1  UNL1        0.0000
   2961 H          27.3204   -4.6840   31.4292 H      29  UNL29       0.0000
   2962 H          27.4455  -12.2139   33.1990 H       1  UNL1        0.0000
   2963 H          22.7488  -11.5739   34.7397 H       1  UNL1        0.0000
   2964 H          18.9515  -17.1139   32.9606 H       1  UNL1        0.0000
   2965 H          24.1148  -13.4213   35.6589 H       1  UNL1        0.0000
   2966 H          23.7398  -10.0318   33.0167 H       1  UNL1        0.0000
   2967 H          28.6059   -6.6070   30.5419 H      29  UNL29       0.0000
   2968 H          14.9585   -6.4155   31.1285 H       1  UNL1        0.0000
   2969 C          25.6498  -11.0334   33.0116 C.ar    1  UNL1        0.0000
   2970 C          24.5470  -12.7488   34.9198 C.ar    1  UNL1        0.0000
   2971 C          29.0805   -5.9147   31.2360 C.2    29  UNL29       0.0000
   2972 C          20.8302  -18.1707   32.9501 C.2     1  UNL1        0.0000
   2973 C          24.3218  -10.8472   33.4412 C.ar    1  UNL1        0.0000
   2974 C          25.8690  -12.9394   34.4977 C.ar    1  UNL1        0.0000
   2975 C          28.3582   -4.8214   31.7298 C.2    29  UNL29       0.0000
   2976 C          21.5474  -19.2779   32.4591 C.3     1  UNL1        0.0000
   2977 C          30.4135   -6.1171   31.6148 C.3    29  UNL29       0.0000
   2978 C          19.4910  -17.9719   32.5642 C.3     1  UNL1        0.0000
   2979 C          26.4225  -12.0827   33.5455 C.ar    1  UNL1        0.0000
   2980 C          23.7737  -11.7049   34.3959 C.ar    1  UNL1        0.0000
   2981 O          27.4508  -10.3120   31.6306 O.3     1  UNL1        0.0000
   2982 O          20.8119  -16.1945   34.2738 O.2     1  UNL1        0.0000
   2983 O          22.6504  -17.4994   34.3304 O.2     1  UNL1        0.0000
   2984 O          25.4902   -9.2135   31.4839 O.3     1  UNL1        0.0000
   2985 N          29.2863   -5.7270   53.4826 N.pl3  49  UNL49       0.0000
   2986 N          29.2663   -3.8851   54.6491 N.pl3  49  UNL49       0.0000
   2987 C          30.5715   -5.5448   53.9704 C.2    49  UNL49       0.0000
   2988 C          30.5569   -4.3862   54.6990 C.2    49  UNL49       0.0000
   2989 C          28.9705   -1.4333   54.3161 C.3    49  UNL49       0.0000
   2990 C          28.8531   -6.8140   52.6002 C.3    49  UNL49       0.0000
   2991 C          28.5100   -4.7132   53.9086 C.3    49  UNL49       0.0000
   2992 C          28.7924   -2.6232   55.2567 C.3    49  UNL49       0.0000
   2993 H          31.3605   -6.2626   53.7829 H      49  UNL49       0.0000
   2994 H          31.3364   -3.8966   55.2671 H      49  UNL49       0.0000
   2995 H          30.0227   -1.2838   54.0437 H      49  UNL49       0.0000
   2996 H          29.2735   -6.6624   51.5971 H      49  UNL49       0.0000
   2997 H          28.3813   -1.5641   53.3990 H      49  UNL49       0.0000
   2998 H          29.2217   -7.7705   52.9905 H      49  UNL49       0.0000
   2999 H          28.6101   -0.5224   54.8149 H      49  UNL49       0.0000
   3000 H          29.3472   -2.5033   56.1947 H      49  UNL49       0.0000
   3001 H          27.7568   -6.8109   52.5499 H      49  UNL49       0.0000
   3002 H          27.4495   -4.6028   53.7204 H      49  UNL49       0.0000
   3003 H          27.7336   -2.7647   55.5083 H      49  UNL49       0.0000
   3004 TI         22.6264   15.7277   11.3690 Ti      1  UNL1        0.0000
   3005 TI         33.4569   18.6090    2.0042 Ti      1  UNL1        0.0000
   3006 TI         26.7231   11.7915    9.5490 Ti      1  UNL1        0.0000
   3007 TI         28.2343   20.9537    3.7760 Ti      1  UNL1        0.0000
   3008 TI         27.2357   22.6320    1.8716 Ti      1  UNL1        0.0000
   3009 TI         28.6113   11.5372   11.5024 Ti      1  UNL1        0.0000
   3010 TI         23.5756   13.9918    9.4775 Ti      1  UNL1        0.0000
   3011 TI         31.4691   18.9115    3.8517 Ti      1  UNL1        0.0000
   3012 H          23.1283   19.6248   11.1496 H       1  UNL1        0.0000
   3013 H          34.2657   14.7029    2.3249 H       1  UNL1        0.0000
   3014 H          18.6665   14.9711   10.9866 H       1  UNL1        0.0000
   3015 H          36.8390   20.6133    2.2049 H       1  UNL1        0.0000
   3016 H          29.5869    7.5027   11.1165 H       1  UNL1        0.0000
   3017 H          23.1772   22.0421    2.1937 H       1  UNL1        0.0000
   3018 H          27.7302   20.9952   -0.0015 H       1  UNL1        0.0000
   3019 H          31.5814   18.3663    0.3043 H       1  UNL1        0.0000
   3020 H          29.1212   10.8701    5.9913 H       1  UNL1        0.0000
   3021 H          26.5108   22.7907    7.3950 H       1  UNL1        0.0000
   3022 H          19.5030   17.3805    9.1216 H       1  UNL1        0.0000
   3023 H          36.2116   16.5246    4.3102 H       1  UNL1        0.0000
   3024 H          21.8041   15.9330    5.7878 H       1  UNL1        0.0000
   3025 H          24.1356   24.4598    4.2249 H       1  UNL1        0.0000
   3026 H          27.6280   25.7348    2.7271 H       1  UNL1        0.0000
   3027 H          34.1078   12.6841    3.5274 H       1  UNL1        0.0000
   3028 H          30.3269   20.6338    2.4374 H       1  UNL1        0.0000
   3029 H          25.6424   13.6399   10.8427 H       1  UNL1        0.0000
   3030 H          32.8460   13.4721    9.8921 H       1  UNL1        0.0000
   3031 H          31.3649   13.0030   10.6394 H       1  UNL1        0.0000
   3032 H          33.4202   17.9057    8.7932 H       1  UNL1        0.0000
   3033 H          32.8504   18.2643    7.1746 H       1  UNL1        0.0000
   3034 H          32.3572    8.5172    9.7020 H       1  UNL1        0.0000
   3035 H          31.0781    9.6178   10.1594 H       1  UNL1        0.0000
   3036 C          34.0349   17.8677    4.8677 C.2     1  UNL1        0.0000
   3037 C          21.6659   15.9891    8.5220 C.3     1  UNL1        0.0000
   3038 C          29.3036   10.7808    8.6243 C.3     1  UNL1        0.0000
   3039 C          26.2982   22.9242    4.7354 C.3     1  UNL1        0.0000
   3040 C          34.9309   17.2634    5.8629 C.2     1  UNL1        0.0000
   3041 C          20.7340   16.6141    7.5449 C.ar    1  UNL1        0.0000
   3042 C          30.2438   10.1665    7.6771 C.ar    1  UNL1        0.0000
   3043 C          25.4084   23.5710    5.7352 C.ar    1  UNL1        0.0000
   3044 C          34.6822   17.3383    7.2693 C.3     1  UNL1        0.0000
   3045 C          20.9504   16.4942    6.1569 C.ar    1  UNL1        0.0000
   3046 C          31.3732    9.4062    8.1302 C.ar    1  UNL1        0.0000
   3047 C          24.3136   24.3439    5.2902 C.ar    1  UNL1        0.0000
   3048 C          25.6628   23.4002    7.0900 C.ar    1  UNL1        0.0000
   3049 C          29.9961   10.2986    6.2932 C.ar    1  UNL1        0.0000
   3050 C          36.0646   16.5644    5.3872 C.3     1  UNL1        0.0000
   3051 C          19.6338   17.3066    8.0436 C.ar    1  UNL1        0.0000
   3052 C          34.2467   14.7820    0.1808 C.2     1  UNL1        0.0000
   3053 C          27.7770   26.5736    0.2058 C.2     1  UNL1        0.0000
   3054 C          36.7311   20.5451    0.0548 C.2     1  UNL1        0.0000
   3055 C          23.3728   22.0875    0.0354 C.2     1  UNL1        0.0000
   3056 C          28.9810   18.6105    5.7406 C.3     1  UNL1        0.0000
   3057 C          24.2249   11.5161    7.6587 C.3     1  UNL1        0.0000
   3058 C          34.1108   16.2368    0.1576 C.2     1  UNL1        0.0000
   3059 C          27.6842   25.1400    0.1683 C.2     1  UNL1        0.0000
   3060 C          35.4333   19.9283    0.1017 C.2     1  UNL1        0.0000
   3061 C          24.7751   22.5019    0.0599 C.2     1  UNL1        0.0000
   3062 C          34.2860   14.1129    1.4105 C.2     1  UNL1        0.0000
   3063 C          23.1392   20.2132   12.0635 C.ar    1  UNL1        0.0000
   3064 C          37.3864   20.8199    1.2888 C.3     1  UNL1        0.0000
   3065 C          18.1050   14.7917   11.9019 C.ar    1  UNL1        0.0000
   3066 C          32.7908   13.7474   11.9164 C.3     1  UNL1        0.0000
   3067 C          22.6756   21.8571    1.2479 C.2     1  UNL1        0.0000
   3068 C          29.6285    6.9755   12.0655 C.ar    1  UNL1        0.0000
   3069 C          27.7907   27.3248    1.4351 C.2     1  UNL1        0.0000
   3070 N          27.8458   26.7259    2.6732 N.pl3   1  UNL1        0.0000
   3071 N          32.2117   13.5645   10.6774 N.3     1  UNL1        0.0000
   3072 N          33.6013   17.9846    7.8006 N.3     1  UNL1        0.0000
   3073 N          31.7043    9.2479    9.4476 N.pl3   1  UNL1        0.0000
   3074 O          32.8586   18.2728    5.2335 O.2     1  UNL1        0.0000
   3075 O          22.4349   15.0383    8.1237 O.3     1  UNL1        0.0000
   3076 O          29.6851   10.9053    9.8454 O.3     1  UNL1        0.0000
   3077 O          26.2323   23.3539    3.5358 O.3     1  UNL1        0.0000
   3078 O          27.0686   21.9670    5.1218 O.3     1  UNL1        0.0000
   3079 O          28.1332   11.1493    8.2188 O.3     1  UNL1        0.0000
   3080 O          34.4468   17.9485    3.6560 O.2     1  UNL1        0.0000
   3081 O          21.6238   16.4254    9.7217 O.3     1  UNL1        0.0000
   3082 O          31.7743   17.6936    2.6570 O.3     1  UNL1        0.0000
   3083 O          24.1281   15.5522   10.2221 O.3     1  UNL1        0.0000
   3084 O          32.7131   19.9809    3.1070 O.3     1  UNL1        0.0000
   3085 O          22.3759   13.8275   10.7147 O.3     1  UNL1        0.0000
   3086 O          26.9824   10.6196   10.8095 O.3     1  UNL1        0.0000
   3087 O          28.7508   22.5150    3.0375 O.3     1  UNL1        0.0000
   3088 O          27.9363   12.8811   10.3453 O.3     1  UNL1        0.0000
   3089 O          27.0446   20.7579    2.5201 O.3     1  UNL1        0.0000
   3090 O          29.3536    9.7653   12.1115 O.3     1  UNL1        0.0000
   3091 O          27.6011   24.4386    1.2635 O.2     1  UNL1        0.0000
   3092 O          30.1558   12.5535   12.1064 O.2     1  UNL1        0.0000
   3093 O          25.3652   22.6029    1.2034 O.2     1  UNL1        0.0000
   3094 O          34.8940   19.6281    1.2496 O.2     1  UNL1        0.0000
   3095 O          20.7396   15.6677   12.0375 O.3     1  UNL1        0.0000
   3096 O          34.0984   16.8738    1.2790 O.2     1  UNL1        0.0000
   3097 O          23.0078   17.4500   12.1187 O.3     1  UNL1        0.0000
   3098 O          29.9661   20.0851    3.1580 O.3     1  UNL1        0.0000
   3099 O          25.2641   13.0812   10.1391 O.3     1  UNL1        0.0000
   3100 O          32.4202   18.8599    0.2252 O.3     1  UNL1        0.0000
   3101 O          27.8525   21.9620    0.0585 O.3     1  UNL1        0.0000
   3102 H          29.2061   14.9882    8.6699 H       1  UNL1        0.0000
   3103 H          25.3314    9.3257    6.5292 H       1  UNL1        0.0000
   3104 H          30.0727   24.0614    5.1834 H      30  UNL30       0.0000
   3105 H          30.1978   16.5315    6.9532 H       1  UNL1        0.0000
   3106 H          25.5011   17.1715    8.4940 H       1  UNL1        0.0000
   3107 H          21.7037   11.6315    6.7149 H       1  UNL1        0.0000
   3108 H          26.8671   15.3241    9.4132 H       1  UNL1        0.0000
   3109 H          26.4921   18.7136    6.7709 H       1  UNL1        0.0000
   3110 H          31.3581   22.1384    4.2962 H      30  UNL30       0.0000
   3111 H          17.7108   22.3299    4.8828 H       1  UNL1        0.0000
   3112 C          28.4020   17.7120    6.7659 C.ar    1  UNL1        0.0000
   3113 C          27.2992   15.9966    8.6740 C.ar    1  UNL1        0.0000
   3114 C          31.8327   22.8307    4.9902 C.2    30  UNL30       0.0000
   3115 C          23.5825   10.5747    6.7044 C.ar    1  UNL1        0.0000
   3116 C          27.0740   17.8982    7.1954 C.ar    1  UNL1        0.0000
   3117 C          28.6212   15.8060    8.2520 C.ar    1  UNL1        0.0000
   3118 C          31.1105   23.9240    5.4840 C.2    30  UNL30       0.0000
   3119 C          24.2996    9.4675    6.2134 C.ar    1  UNL1        0.0000
   3120 C          33.1657   22.6282    5.3691 C.3    30  UNL30       0.0000
   3121 C          22.2433   10.7735    6.3185 C.ar    1  UNL1        0.0000
   3122 C          29.1748   16.6627    7.2998 C.ar    1  UNL1        0.0000
   3123 C          26.5260   17.0405    8.1502 C.ar    1  UNL1        0.0000
   3124 O          30.2031   18.4334    5.3849 O.3     1  UNL1        0.0000
   3125 O          23.5642   12.5509    8.0280 O.3     1  UNL1        0.0000
   3126 O          25.4027   11.2460    8.0846 O.3     1  UNL1        0.0000
   3127 O          28.2424   19.5318    5.2381 O.3     1  UNL1        0.0000
   3128 N          32.0386   23.0184   27.2369 N.pl3  50  UNL50       0.0000
   3129 N          32.0186   24.8602   28.4033 N.pl3  50  UNL50       0.0000
   3130 C          33.3238   23.2006   27.7247 C.2    50  UNL50       0.0000
   3131 C          33.3092   24.3592   28.4533 C.2    50  UNL50       0.0000
   3132 C          31.7228   27.3121   28.0704 C.3    50  UNL50       0.0000
   3133 C          31.6054   21.9314   26.3544 C.3    50  UNL50       0.0000
   3134 C          31.2622   24.0322   27.6628 C.3    50  UNL50       0.0000
   3135 C          31.5446   26.1221   29.0110 C.3    50  UNL50       0.0000
   3136 H          34.1128   22.4828   27.5372 H      50  UNL50       0.0000
   3137 H          34.0887   24.8488   29.0214 H      50  UNL50       0.0000
   3138 H          32.7750   27.4616   27.7979 H      50  UNL50       0.0000
   3139 H          32.0258   22.0829   25.3514 H      50  UNL50       0.0000
   3140 H          31.1336   27.1813   27.1532 H      50  UNL50       0.0000
   3141 H          31.9740   20.9749   26.7447 H      50  UNL50       0.0000
   3142 H          31.3623   28.2229   28.5691 H      50  UNL50       0.0000
   3143 H          32.0995   26.2421   29.9489 H      50  UNL50       0.0000
   3144 H          30.5091   21.9344   26.3042 H      50  UNL50       0.0000
   3145 H          30.2018   24.1426   27.4747 H      50  UNL50       0.0000
   3146 H          30.4859   25.9807   29.2626 H      50  UNL50       0.0000
   3147 TI         17.9918    8.6613   24.4636 Ti      1  UNL1        0.0000
   3148 TI         28.8222   11.5425   15.0988 Ti      1  UNL1        0.0000
   3149 TI         22.0885    4.7251   22.6436 Ti      1  UNL1        0.0000
   3150 TI         23.5996   13.8872   16.8706 Ti      1  UNL1        0.0000
   3151 TI         22.6011   15.5656   14.9662 Ti      1  UNL1        0.0000
   3152 TI         23.9767    4.4708   24.5970 Ti      1  UNL1        0.0000
   3153 TI         18.9410    6.9254   22.5721 Ti      1  UNL1        0.0000
   3154 TI         26.8344   11.8451   16.9463 Ti      1  UNL1        0.0000
   3155 H          18.4936   12.5584   24.2442 H       1  UNL1        0.0000
   3156 H          29.6310    7.6365   15.4195 H       1  UNL1        0.0000
   3157 H          14.0319    7.9047   24.0812 H       1  UNL1        0.0000
   3158 H          32.2044   13.5468   15.2995 H       1  UNL1        0.0000
   3159 H          24.9523    0.4362   24.2111 H       1  UNL1        0.0000
   3160 H          18.5425   14.9757   15.2883 H       1  UNL1        0.0000
   3161 H          23.0955   13.9287   13.0931 H       1  UNL1        0.0000
   3162 H          26.9467   11.2998   13.3989 H       1  UNL1        0.0000
   3163 H          24.4866    3.8037   19.0859 H       1  UNL1        0.0000
   3164 H          21.8762   15.7243   20.4896 H       1  UNL1        0.0000
   3165 H          14.8683   10.3140   22.2162 H       1  UNL1        0.0000
   3166 H          31.5770    9.4582   17.4048 H       1  UNL1        0.0000
   3167 H          17.1695    8.8666   18.8824 H       1  UNL1        0.0000
   3168 H          19.5010   17.3934   17.3195 H       1  UNL1        0.0000
   3169 H          22.9933   18.6684   15.8217 H       1  UNL1        0.0000
   3170 H          29.4732    5.6176   16.6220 H       1  UNL1        0.0000
   3171 H          25.6923   13.5674   15.5320 H       1  UNL1        0.0000
   3172 H          21.0078    6.5735   23.9373 H       1  UNL1        0.0000
   3173 H          28.2114    6.4056   22.9867 H       1  UNL1        0.0000
   3174 H          26.7303    5.9366   23.7340 H       1  UNL1        0.0000
   3175 H          28.7855   10.8393   21.8878 H       1  UNL1        0.0000
   3176 H          28.2158   11.1978   20.2692 H       1  UNL1        0.0000
   3177 H          27.7226    1.4508   22.7966 H       1  UNL1        0.0000
   3178 H          26.4434    2.5514   23.2540 H       1  UNL1        0.0000
   3179 C          29.4003   10.8013   17.9623 C.2     1  UNL1        0.0000
   3180 C          17.0312    8.9227   21.6166 C.3     1  UNL1        0.0000
   3181 C          24.6690    3.7144   21.7189 C.3     1  UNL1        0.0000
   3182 C          21.6635   15.8578   17.8300 C.3     1  UNL1        0.0000
   3183 C          30.2963   10.1970   18.9575 C.2     1  UNL1        0.0000
   3184 C          16.0993    9.5477   20.6395 C.ar    1  UNL1        0.0000
   3185 C          25.6092    3.1001   20.7717 C.ar    1  UNL1        0.0000
   3186 C          20.7737   16.5046   18.8298 C.ar    1  UNL1        0.0000
   3187 C          30.0475   10.2719   20.3640 C.3     1  UNL1        0.0000
   3188 C          16.3157    9.4277   19.2515 C.ar    1  UNL1        0.0000
   3189 C          26.7386    2.3398   21.2248 C.ar    1  UNL1        0.0000
   3190 C          19.6790   17.2775   18.3848 C.ar    1  UNL1        0.0000
   3191 C          21.0282   16.3338   20.1846 C.ar    1  UNL1        0.0000
   3192 C          25.3614    3.2322   19.3878 C.ar    1  UNL1        0.0000
   3193 C          31.4300    9.4980   18.4818 C.3     1  UNL1        0.0000
   3194 C          14.9991   10.2401   21.1382 C.ar    1  UNL1        0.0000
   3195 C          29.6120    7.7155   13.2754 C.ar    1  UNL1        0.0000
   3196 C          23.1423   19.5071   13.3004 C.ar    1  UNL1        0.0000
   3197 C          32.0965   13.4787   13.1494 C.2     1  UNL1        0.0000
   3198 C          18.7381   15.0211   13.1300 C.ar    1  UNL1        0.0000
   3199 C          24.3464   11.5441   18.8352 C.3     1  UNL1        0.0000
   3200 C          19.5903    4.4497   20.7533 C.3     1  UNL1        0.0000
   3201 C          29.4762    9.1704   13.2522 C.3     1  UNL1        0.0000
   3202 C          23.0496   18.0736   13.2629 C.3     1  UNL1        0.0000
   3203 C          30.7986   12.8618   13.1963 C.2     1  UNL1        0.0000
   3204 C          20.1405   15.4354   13.1545 C.3     1  UNL1        0.0000
   3205 C          29.6514    7.0464   14.5051 C.ar    1  UNL1        0.0000
   3206 C          18.5046   13.1468   25.1581 C.ar    1  UNL1        0.0000
   3207 C          32.7518   13.7535   14.3834 C.3     1  UNL1        0.0000
   3208 C          13.4704    7.7253   24.9965 C.ar    1  UNL1        0.0000
   3209 C          28.1561    6.6809   25.0110 C.3     1  UNL1        0.0000
   3210 C          18.0410   14.7907   14.3425 C.ar    1  UNL1        0.0000
   3211 C          24.9939   -0.0909   25.1601 C.ar    1  UNL1        0.0000
   3212 C          23.1561   20.2583   14.5297 C.ar    1  UNL1        0.0000
   3213 N          23.2111   19.6595   15.7679 N.pl3   1  UNL1        0.0000
   3214 N          27.5771    6.4981   23.7721 N.3     1  UNL1        0.0000
   3215 N          28.9666   10.9181   20.8952 N.3     1  UNL1        0.0000
   3216 N          27.0696    2.1815   22.5422 N.pl3   1  UNL1        0.0000
   3217 O          28.2239   11.2064   18.3281 O.2     1  UNL1        0.0000
   3218 O          17.8002    7.9718   21.2183 O.3     1  UNL1        0.0000
   3219 O          25.0504    3.8389   22.9400 O.3     1  UNL1        0.0000
   3220 O          21.5976   16.2874   16.6304 O.3     1  UNL1        0.0000
   3221 O          22.4340   14.9005   18.2164 O.3     1  UNL1        0.0000
   3222 O          23.4985    4.0828   21.3134 O.3     1  UNL1        0.0000
   3223 O          29.8121   10.8820   16.7506 O.2     1  UNL1        0.0000
   3224 O          16.9892    9.3589   22.8163 O.3     1  UNL1        0.0000
   3225 O          27.1396   10.6272   15.7516 O.3     1  UNL1        0.0000
   3226 O          19.4934    8.4858   23.3167 O.3     1  UNL1        0.0000
   3227 O          28.0784   12.9145   16.2016 O.3     1  UNL1        0.0000
   3228 O          17.7412    6.7611   23.8093 O.3     1  UNL1        0.0000
   3229 O          22.3478    3.5531   23.9041 O.3     1  UNL1        0.0000
   3230 O          24.1162   15.4486   16.1321 O.3     1  UNL1        0.0000
   3231 O          23.3017    5.8146   23.4399 O.3     1  UNL1        0.0000
   3232 O          22.4100   13.6914   15.6147 O.3     1  UNL1        0.0000
   3233 O          24.7190    2.6989   25.2061 O.3     1  UNL1        0.0000
   3234 O          22.9665   17.3722   14.3581 O.3     1  UNL1        0.0000
   3235 O          25.5211    5.4871   25.2010 O.2     1  UNL1        0.0000
   3236 O          20.7305   15.5364   14.2980 O.3     1  UNL1        0.0000
   3237 O          30.2593   12.5616   14.3443 O.2     1  UNL1        0.0000
   3238 O          16.1050    8.6013   25.1321 O.3     1  UNL1        0.0000
   3239 O          29.4637    9.8073   14.3737 O.3     1  UNL1        0.0000
   3240 O          18.3732   10.3836   25.2133 O.3     1  UNL1        0.0000
   3241 O          25.3314   13.0186   16.2527 O.3     1  UNL1        0.0000
   3242 O          20.6295    6.0148   23.2337 O.3     1  UNL1        0.0000
   3243 O          27.7855   11.7935   13.3199 O.3     1  UNL1        0.0000
   3244 O          23.2179   14.8955   13.1531 O.3     1  UNL1        0.0000
   3245 H          24.5715    7.9217   21.7645 H       1  UNL1        0.0000
   3246 H          20.6968    2.2592   19.6238 H       1  UNL1        0.0000
   3247 H          25.4380   16.9949   18.2780 H      31  UNL31       0.0000
   3248 H          25.5631    9.4651   20.0478 H       1  UNL1        0.0000
   3249 H          20.8664   10.1051   21.5886 H       1  UNL1        0.0000
   3250 H          17.0691    4.5650   19.8095 H       1  UNL1        0.0000
   3251 H          22.2324    8.2576   22.5078 H       1  UNL1        0.0000
   3252 H          21.8574   11.6472   19.8656 H       1  UNL1        0.0000
   3253 H          26.7235   15.0720   17.3908 H      31  UNL31       0.0000
   3254 H          13.0761   15.2634   17.9774 H       1  UNL1        0.0000
   3255 C          23.7674   10.6456   19.8605 C.ar    1  UNL1        0.0000
   3256 C          22.6646    8.9302   21.7686 C.ar    1  UNL1        0.0000
   3257 C          27.1981   15.7642   18.0848 C.2    31  UNL31       0.0000
   3258 C          18.9478    3.5082   19.7990 C.ar    1  UNL1        0.0000
   3259 C          22.4394   10.8317   20.2900 C.ar    1  UNL1        0.0000
   3260 C          23.9866    8.7396   21.3466 C.ar    1  UNL1        0.0000
   3261 C          26.4759   16.8576   18.5787 C.2    31  UNL31       0.0000
   3262 C          19.6650    2.4010   19.3080 C.ar    1  UNL1        0.0000
   3263 C          28.5311   15.5618   18.4637 C.3    31  UNL31       0.0000
   3264 C          17.6086    3.7070   19.4131 C.ar    1  UNL1        0.0000
   3265 C          24.5402    9.5962   20.3944 C.ar    1  UNL1        0.0000
   3266 C          21.8913    9.9740   21.2448 C.ar    1  UNL1        0.0000
   3267 O          25.5685   11.3669   18.4795 O.3     1  UNL1        0.0000
   3268 O          18.9295    5.4844   21.1227 O.3     1  UNL1        0.0000
   3269 O          20.7681    4.1795   21.1792 O.3     1  UNL1        0.0000
   3270 O          23.6078   12.4654   18.3327 O.3     1  UNL1        0.0000
   3271 N          27.4039   15.9519   40.3315 N.pl3  51  UNL51       0.0000
   3272 N          27.3839   17.7938   41.4979 N.pl3  51  UNL51       0.0000
   3273 C          28.6892   16.1341   40.8193 C.2    51  UNL51       0.0000
   3274 C          28.6746   17.2928   41.5479 C.2    51  UNL51       0.0000
   3275 C          27.0881   20.2456   41.1650 C.3    51  UNL51       0.0000
   3276 C          26.9707   14.8649   39.4491 C.3    51  UNL51       0.0000
   3277 C          26.6276   16.9658   40.7574 C.3    51  UNL51       0.0000
   3278 C          26.9100   19.0557   42.1056 C.3    51  UNL51       0.0000
   3279 H          29.4781   15.4164   40.6318 H      51  UNL51       0.0000
   3280 H          29.4541   17.7823   42.1160 H      51  UNL51       0.0000
   3281 H          28.1403   20.3951   40.8925 H      51  UNL51       0.0000
   3282 H          27.3912   15.0165   38.4460 H      51  UNL51       0.0000
   3283 H          26.4990   20.1149   40.2479 H      51  UNL51       0.0000
   3284 H          27.3393   13.9085   39.8394 H      51  UNL51       0.0000
   3285 H          26.7277   21.1565   41.6637 H      51  UNL51       0.0000
   3286 H          27.4648   19.1757   43.0435 H      51  UNL51       0.0000
   3287 H          25.8745   14.8680   39.3988 H      51  UNL51       0.0000
   3288 H          25.5671   17.0762   40.5693 H      51  UNL51       0.0000
   3289 H          25.8512   18.9143   42.3572 H      51  UNL51       0.0000
   3290 TI         13.3571    1.5949   37.5582 Ti      1  UNL1        0.0000
   3291 TI         24.1876    4.4761   28.1934 Ti      1  UNL1        0.0000
   3292 TI         17.4538   -2.3413   35.7383 Ti      1  UNL1        0.0000
   3293 TI         18.9650    6.8208   29.9652 Ti      1  UNL1        0.0000
   3294 TI         17.9664    8.4991   28.0608 Ti      1  UNL1        0.0000
   3295 TI         19.3420   -2.5957   37.6916 Ti      1  UNL1        0.0000
   3296 TI         14.3063   -0.1410   35.6668 Ti      1  UNL1        0.0000
   3297 TI         22.1998    4.7786   30.0409 Ti      1  UNL1        0.0000
   3298 H          13.8590    5.4920   37.3388 H      32  UNL32       0.0000
   3299 H          24.9964    0.5700   28.5141 H       1  UNL1        0.0000
   3300 H           9.3972    0.8382   37.1758 H      18  UNL18       0.0000
   3301 H          27.5697    6.4804   28.3941 H       1  UNL1        0.0000
   3302 H          20.3176   -6.6302   37.3057 H      26  UNL26       0.0000
   3303 H          13.9079    7.9092   28.3829 H       1  UNL1        0.0000
   3304 H          18.4609    6.8623   26.1878 H       1  UNL1        0.0000
   3305 H          22.3121    4.2334   26.4935 H       1  UNL1        0.0000
   3306 H          19.8519   -3.2628   32.1805 H       1  UNL1        0.0000
   3307 H          17.2416    8.6578   33.5842 H       1  UNL1        0.0000
   3308 H          10.2337    3.2476   35.3108 H       1  UNL1        0.0000
   3309 H          26.9423    2.3918   30.4994 H       1  UNL1        0.0000
   3310 H          12.5348    1.8002   31.9770 H       1  UNL1        0.0000
   3311 H          14.8663   10.3270   30.4141 H       1  UNL1        0.0000
   3312 H          18.3587   11.6019   28.9163 H       1  UNL1        0.0000
   3313 H          24.8385   -1.4488   29.7166 H       1  UNL1        0.0000
   3314 H          21.0576    6.5009   28.6266 H       1  UNL1        0.0000
   3315 H          16.3731   -0.4929   37.0319 H       1  UNL1        0.0000
   3316 H          23.5767   -0.6608   36.0813 H      33  UNL33       0.0000
   3317 H          22.0956   -1.1299   36.8286 H      33  UNL33       0.0000
   3318 H          24.1509    3.7728   34.9824 H       1  UNL1        0.0000
   3319 H          23.5811    4.1314   33.3638 H       1  UNL1        0.0000
   3320 H          23.0879   -5.6156   35.8913 H       1  UNL1        0.0000
   3321 H          21.8088   -4.5151   36.3486 H       1  UNL1        0.0000
   3322 C          24.7656    3.7348   31.0570 C.2     1  UNL1        0.0000
   3323 C          12.3966    1.8563   34.7112 C.3     1  UNL1        0.0000
   3324 C          20.0343   -3.3520   34.8135 C.3     1  UNL1        0.0000
   3325 C          17.0289    8.7913   30.9246 C.3     1  UNL1        0.0000
   3326 C          25.6616    3.1305   32.0521 C.2     1  UNL1        0.0000
   3327 C          11.4647    2.4813   33.7342 C.ar    1  UNL1        0.0000
   3328 C          20.9745   -3.9664   33.8663 C.ar    1  UNL1        0.0000
   3329 C          16.1391    9.4381   31.9244 C.ar    1  UNL1        0.0000
   3330 C          25.4129    3.2054   33.4586 C.3     1  UNL1        0.0000
   3331 C          11.6811    2.3613   32.3461 C.ar    1  UNL1        0.0000
   3332 C          22.1040   -4.7267   34.3194 C.ar    1  UNL1        0.0000
   3333 C          15.0443   10.2111   31.4794 C.ar    1  UNL1        0.0000
   3334 C          16.3936    9.2674   33.2793 C.ar    1  UNL1        0.0000
   3335 C          20.7268   -3.8342   32.4824 C.ar    1  UNL1        0.0000
   3336 C          26.7953    2.4315   31.5764 C.3     1  UNL1        0.0000
   3337 C          10.3645    3.1737   34.2328 C.ar    1  UNL1        0.0000
   3338 C          24.9774    0.6491   26.3700 C.ar    1  UNL1        0.0000
   3339 C          18.5077   12.4407   26.3950 C.ar    1  UNL1        0.0000
   3340 C          27.4618    6.4122   26.2440 C.2     1  UNL1        0.0000
   3341 C          14.1035    7.9547   26.2246 C.ar    1  UNL1        0.0000
   3342 C          19.7117    4.4776   31.9298 C.3     1  UNL1        0.0000
   3343 C          14.9556   -2.6167   33.8480 C.3     1  UNL1        0.0000
   3344 C          24.8415    2.1040   26.3468 C.3     1  UNL1        0.0000
   3345 C          18.4149   11.0072   26.3575 C.3     1  UNL1        0.0000
   3346 C          26.1640    5.7954   26.2909 C.2     1  UNL1        0.0000
   3347 C          15.5058    8.3690   26.2491 C.3     1  UNL1        0.0000
   3348 C          25.0167   -0.0200   27.5997 C.ar    1  UNL1        0.0000
   3349 C          13.8699    6.0804   38.2527 C.2    32  UNL32       0.0000
   3350 C          28.1171    6.6870   27.4780 C.3     1  UNL1        0.0000
   3351 C           8.8357    0.6589   38.0911 C.2    18  UNL18       0.0000
   3352 C          23.5215   -0.3855   38.1056 C.3    33  UNL33       0.0000
   3353 C          13.4063    7.7242   27.4371 C.ar    1  UNL1        0.0000
   3354 C          20.3593   -7.1574   38.2548 C.2    26  UNL26       0.0000
   3355 C          18.5214   13.1919   27.6243 C.ar    1  UNL1        0.0000
   3356 N          18.5765   12.5930   28.8625 N.pl3   1  UNL1        0.0000
   3357 N          22.9425   -0.5683   36.8667 N.3    33  UNL33       0.0000
   3358 N          24.3320    3.8517   33.9899 N.3     1  UNL1        0.0000
   3359 N          22.4350   -4.8849   35.6368 N.pl3   1  UNL1        0.0000
   3360 O          23.5893    4.1399   31.4227 O.2     1  UNL1        0.0000
   3361 O          13.1656    0.9054   34.3129 O.3     1  UNL1        0.0000
   3362 O          20.4158   -3.2276   36.0346 O.3     1  UNL1        0.0000
   3363 O          16.9630    9.2210   29.7250 O.3     1  UNL1        0.0000
   3364 O          17.7993    7.8341   31.3110 O.3     1  UNL1        0.0000
   3365 O          18.8639   -2.9836   34.4080 O.3     1  UNL1        0.0000
   3366 O          25.1775    3.8156   29.8452 O.2     1  UNL1        0.0000
   3367 O          12.3546    2.2925   35.9109 O.3     1  UNL1        0.0000
   3368 O          22.5050    3.5607   28.8462 O.3     1  UNL1        0.0000
   3369 O          14.8588    1.4193   36.4113 O.3     1  UNL1        0.0000
   3370 O          23.4438    5.8480   29.2962 O.3     1  UNL1        0.0000
   3371 O          13.1066   -0.3053   36.9039 O.3     1  UNL1        0.0000
   3372 O          17.7131   -3.5133   36.9987 O.3     1  UNL1        0.0000
   3373 O          19.4815    8.3821   29.2267 O.3     1  UNL1        0.0000
   3374 O          18.6671   -1.2518   36.5345 O.3     1  UNL1        0.0000
   3375 O          17.7753    6.6250   28.7093 O.3     1  UNL1        0.0000
   3376 O          20.0843   -4.3675   38.3007 O.3     1  UNL1        0.0000
   3377 O          18.3318   10.3057   27.4527 O.3     1  UNL1        0.0000
   3378 O          20.8865   -1.5793   38.2956 O.3     1  UNL1        0.0000
   3379 O          16.0959    8.4700   27.3927 O.3     1  UNL1        0.0000
   3380 O          25.6247    5.4952   27.4389 O.2     1  UNL1        0.0000
   3381 O          11.4703    1.5348   38.2267 O.3     1  UNL1        0.0000
   3382 O          24.8291    2.7409   27.4683 O.3     1  UNL1        0.0000
   3383 O          13.7385    3.3172   38.3079 O.3     1  UNL1        0.0000
   3384 O          20.6968    5.9522   29.3473 O.3     1  UNL1        0.0000
   3385 O          15.9948   -1.0516   36.3283 O.3     1  UNL1        0.0000
   3386 O          23.1509    4.7271   26.4145 O.3     1  UNL1        0.0000
   3387 O          18.5832    7.8291   26.2477 O.3     1  UNL1        0.0000
   3388 H          19.9368    0.8553   34.8591 H       1  UNL1        0.0000
   3389 H          16.0621   -4.8072   32.7184 H       1  UNL1        0.0000
   3390 H          20.8034    9.9285   31.3726 H      34  UNL34       0.0000
   3391 H          20.9285    2.3986   33.1425 H       1  UNL1        0.0000
   3392 H          16.2318    3.0386   34.6832 H       1  UNL1        0.0000
   3393 H          12.4345   -2.5014   32.9041 H       1  UNL1        0.0000
   3394 H          17.5978    1.1912   35.6024 H       1  UNL1        0.0000
   3395 H          17.2228    4.5808   32.9602 H       1  UNL1        0.0000
   3396 H          22.0888    8.0055   30.4854 H      34  UNL34       0.0000
   3397 H           8.4415    8.1970   31.0720 H       1  UNL1        0.0000
   3398 C          19.1327    3.5792   32.9551 C.ar    1  UNL1        0.0000
   3399 C          18.0299    1.8637   34.8633 C.ar    1  UNL1        0.0000
   3400 C          22.5634    8.6978   31.1795 C.2    34  UNL34       0.0000
   3401 C          14.3132   -3.5582   32.8936 C.ar    1  UNL1        0.0000
   3402 C          17.8047    3.7653   33.3847 C.ar    1  UNL1        0.0000
   3403 C          19.3519    1.6731   34.4412 C.ar    1  UNL1        0.0000
   3404 C          21.8412    9.7911   31.6733 C.2    34  UNL34       0.0000
   3405 C          15.0303   -4.6654   32.4026 C.ar    1  UNL1        0.0000
   3406 C          23.8964    8.4954   31.5583 C.3    34  UNL34       0.0000
   3407 C          12.9740   -3.3594   32.5077 C.ar    1  UNL1        0.0000
   3408 C          19.9055    2.5298   33.4890 C.ar    1  UNL1        0.0000
   3409 C          17.2567    2.9076   34.3394 C.ar    1  UNL1        0.0000
   3410 O          20.9338    4.3005   31.5741 O.3     1  UNL1        0.0000
   3411 O          14.2949   -1.5820   34.2173 O.3     1  UNL1        0.0000
   3412 O          16.1334   -2.8869   34.2739 O.3     1  UNL1        0.0000
   3413 O          18.9731    5.3990   31.4273 O.3     1  UNL1        0.0000
   3414 N          22.7693    8.8855   53.4261 N.pl3  52  UNL52       0.0000
   3415 N          22.7493   10.7274   54.5925 N.pl3  52  UNL52       0.0000
   3416 C          24.0545    9.0677   53.9139 C.2    52  UNL52       0.0000
   3417 C          24.0399   10.2263   54.6425 C.2    52  UNL52       0.0000
   3418 C          22.4535   13.1792   54.2596 C.3    52  UNL52       0.0000
   3419 C          22.3361    7.7985   52.5437 C.3    52  UNL52       0.0000
   3420 C          21.9929    9.8993   53.8521 C.3    52  UNL52       0.0000
   3421 C          22.2753   11.9893   55.2002 C.3    52  UNL52       0.0000
   3422 H          24.8435    8.3499   53.7264 H      52  UNL52       0.0000
   3423 H          24.8194   10.7159   55.2106 H      52  UNL52       0.0000
   3424 H          23.5057   13.3287   53.9871 H      52  UNL52       0.0000
   3425 H          22.7565    7.9501   51.5406 H      52  UNL52       0.0000
   3426 H          21.8643   13.0485   53.3425 H      52  UNL52       0.0000
   3427 H          22.7047    6.8420   52.9340 H      52  UNL52       0.0000
   3428 H          22.0930   14.0901   54.7583 H      52  UNL52       0.0000
   3429 H          22.8302   12.1093   56.1381 H      52  UNL52       0.0000
   3430 H          21.2398    7.8016   52.4934 H      52  UNL52       0.0000
   3431 H          20.9325   10.0097   53.6639 H      52  UNL52       0.0000
   3432 H          21.2166   11.8478   55.4518 H      52  UNL52       0.0000
   3433 TI         16.1094   30.3402   11.3125 Ti      1  UNL1        0.0000
   3434 TI         26.9399   33.2215    1.9477 Ti      1  UNL1        0.0000
   3435 TI         20.2061   26.4041    9.4925 Ti      1  UNL1        0.0000
   3436 TI         21.7173   35.5662    3.7195 Ti      1  UNL1        0.0000
   3437 TI         20.7187   37.2445    1.8151 Ti      1  UNL1        0.0000
   3438 TI         22.0943   26.1497   11.4459 Ti      1  UNL1        0.0000
   3439 TI         17.0586   28.6044    9.4210 Ti      1  UNL1        0.0000
   3440 TI         24.9520   33.5240    3.7952 Ti      1  UNL1        0.0000
   3441 H          16.6113   34.2373   11.0930 H       1  UNL1        0.0000
   3442 H          27.7486   29.3154    2.2684 H       1  UNL1        0.0000
   3443 H          12.1495   29.5836   10.9300 H       1  UNL1        0.0000
   3444 H          30.3220   35.2258    2.1483 H       1  UNL1        0.0000
   3445 H          23.0699   22.1152   11.0600 H       1  UNL1        0.0000
   3446 H          16.6602   36.6546    2.1372 H       1  UNL1        0.0000
   3447 H          21.2131   35.6077   -0.0580 H       1  UNL1        0.0000
   3448 H          25.0643   32.9788    0.2478 H       1  UNL1        0.0000
   3449 H          22.6042   25.4826    5.9348 H       1  UNL1        0.0000
   3450 H          19.9938   37.4032    7.3384 H       1  UNL1        0.0000
   3451 H          12.9860   31.9930    9.0651 H       1  UNL1        0.0000
   3452 H          29.6946   31.1371    4.2537 H       1  UNL1        0.0000
   3453 H          15.2871   30.5455    5.7313 H       1  UNL1        0.0000
   3454 H          17.6186   39.0724    4.1683 H       1  UNL1        0.0000
   3455 H          21.1109   40.3473    2.6706 H       1  UNL1        0.0000
   3456 H          27.5908   27.2966    3.4709 H       1  UNL1        0.0000
   3457 H          23.8099   35.2463    2.3809 H       1  UNL1        0.0000
   3458 H          19.1254   28.2524   10.7861 H       1  UNL1        0.0000
   3459 H          26.3290   28.0846    9.8355 H       1  UNL1        0.0000
   3460 H          24.8479   27.6155   10.5829 H       1  UNL1        0.0000
   3461 H          26.9031   32.5182    8.7366 H       1  UNL1        0.0000
   3462 H          26.3334   32.8768    7.1181 H       1  UNL1        0.0000
   3463 H          25.8402   23.1297    9.6455 H       1  UNL1        0.0000
   3464 H          24.5611   24.2303   10.1029 H       1  UNL1        0.0000
   3465 C          27.5179   32.4802    4.8112 C.2     1  UNL1        0.0000
   3466 C          15.1488   30.6016    8.4655 C.3     1  UNL1        0.0000
   3467 C          22.7866   25.3933    8.5678 C.3     1  UNL1        0.0000
   3468 C          19.7811   37.5367    4.6788 C.3     1  UNL1        0.0000
   3469 C          28.4139   31.8759    5.8064 C.2     1  UNL1        0.0000
   3470 C          14.2169   31.2267    7.4884 C.ar    1  UNL1        0.0000
   3471 C          23.7268   24.7790    7.6206 C.ar    1  UNL1        0.0000
   3472 C          18.8913   38.1835    5.6786 C.2     1  UNL1        0.0000
   3473 C          28.1651   31.9508    7.2128 C.3     1  UNL1        0.0000
   3474 C          14.4333   31.1067    6.1004 C.ar    1  UNL1        0.0000
   3475 C          24.8562   24.0187    8.0737 C.ar    1  UNL1        0.0000
   3476 C          17.7966   38.9565    5.2337 C.3     1  UNL1        0.0000
   3477 C          19.1458   38.0127    7.0335 C.2     1  UNL1        0.0000
   3478 C          23.4791   24.9111    6.2367 C.ar    1  UNL1        0.0000
   3479 C          29.5476   31.1769    5.3307 C.3     1  UNL1        0.0000
   3480 C          13.1168   31.9191    7.9871 C.ar    1  UNL1        0.0000
   3481 C          27.7297   29.3945    0.1243 C.2     1  UNL1        0.0000
   3482 C          21.2599   41.1861    0.1493 C.2     1  UNL1        0.0000
   3483 C          30.2141   35.1576   -0.0017 C.2     1  UNL1        0.0000
   3484 C          16.8558   36.7000   -0.0211 C.2     1  UNL1        0.0000
   3485 C          22.4640   33.2230    5.6841 C.3     1  UNL1        0.0000
   3486 C          17.7079   26.1286    7.6022 C.3     1  UNL1        0.0000
   3487 C          27.5938   30.8493    0.1011 C.2     1  UNL1        0.0000
   3488 C          21.1672   39.7526    0.1118 C.2     1  UNL1        0.0000
   3489 C          28.9163   34.5408    0.0451 C.2     1  UNL1        0.0000
   3490 C          18.2581   37.1144    0.0033 C.2     1  UNL1        0.0000
   3491 C          27.7690   28.7254    1.3540 C.2     1  UNL1        0.0000
   3492 C          16.6222   34.8257   12.0069 C.3     1  UNL1        0.0000
   3493 C          30.8694   35.4324    1.2322 C.3     1  UNL1        0.0000
   3494 C          11.5880   29.4042   11.8454 C.ar    1  UNL1        0.0000
   3495 C          26.2738   28.3599   11.8599 C.3     1  UNL1        0.0000
   3496 C          16.1586   36.4696    1.1914 C.2     1  UNL1        0.0000
   3497 C          23.1115   21.5880   12.0090 C.ar    1  UNL1        0.0000
   3498 C          21.2737   41.9373    1.3786 C.3     1  UNL1        0.0000
   3499 N          21.3288   41.3384    2.6167 N.3     1  UNL1        0.0000
   3500 N          25.6947   28.1770   10.6209 N.3     1  UNL1        0.0000
   3501 N          27.0843   32.5971    7.7441 N.3     1  UNL1        0.0000
   3502 N          25.1872   23.8604    9.3911 N.pl3   1  UNL1        0.0000
   3503 O          26.3416   32.8853    5.1770 O.2     1  UNL1        0.0000
   3504 O          15.9178   29.6508    8.0672 O.3     1  UNL1        0.0000
   3505 O          23.1680   25.5178    9.7889 O.3     1  UNL1        0.0000
   3506 O          19.7153   37.9664    3.4792 O.3     1  UNL1        0.0000
   3507 O          20.5516   36.5795    5.0653 O.3     1  UNL1        0.0000
   3508 O          21.6161   25.7618    8.1623 O.3     1  UNL1        0.0000
   3509 O          27.9298   32.5610    3.5995 O.2     1  UNL1        0.0000
   3510 O          15.1068   31.0379    9.6652 O.3     1  UNL1        0.0000
   3511 O          25.2573   32.3061    2.6005 O.3     1  UNL1        0.0000
   3512 O          17.6110   30.1647   10.1655 O.3     1  UNL1        0.0000
   3513 O          26.1960   34.5934    3.0504 O.3     1  UNL1        0.0000
   3514 O          15.8589   28.4400   10.6582 O.3     1  UNL1        0.0000
   3515 O          20.4654   25.2321   10.7529 O.3     1  UNL1        0.0000
   3516 O          22.2338   37.1275    2.9810 O.3     1  UNL1        0.0000
   3517 O          21.4193   27.4936   10.2888 O.3     1  UNL1        0.0000
   3518 O          20.5276   35.3704    2.4636 O.3     1  UNL1        0.0000
   3519 O          22.8366   24.3778   12.0550 O.3     1  UNL1        0.0000
   3520 O          21.0841   39.0511    1.2070 O.2     1  UNL1        0.0000
   3521 O          23.6387   27.1660   12.0499 O.2     1  UNL1        0.0000
   3522 O          18.8481   37.2154    1.1469 O.2     1  UNL1        0.0000
   3523 O          28.3769   34.2406    1.1931 O.2     1  UNL1        0.0000
   3524 O          14.2226   30.2802   11.9809 O.3     1  UNL1        0.0000
   3525 O          27.5814   31.4863    1.2225 O.2     1  UNL1        0.0000
   3526 O          16.4908   32.0625   12.0622 O.2     1  UNL1        0.0000
   3527 O          23.4490   34.6976    3.1015 O.3     1  UNL1        0.0000
   3528 O          18.7471   27.6938   10.0825 O.3     1  UNL1        0.0000
   3529 O          25.9032   33.4724    0.1687 O.3     1  UNL1        0.0000
   3530 O          21.3355   36.5745    0.0020 O.3     1  UNL1        0.0000
   3531 H          22.6891   29.6007    8.6134 H       1  UNL1        0.0000
   3532 H          18.8144   23.9382    6.4727 H       1  UNL1        0.0000
   3533 H          23.5556   38.6739    5.1269 H      35  UNL35       0.0000
   3534 H          23.6807   31.1440    6.8967 H       1  UNL1        0.0000
   3535 H          18.9840   31.7840    8.4375 H       1  UNL1        0.0000
   3536 H          15.1867   26.2440    6.6584 H       1  UNL1        0.0000
   3537 H          20.3501   29.9366    9.3567 H       1  UNL1        0.0000
   3538 H          19.9750   33.3261    6.7144 H       1  UNL1        0.0000
   3539 H          24.8411   36.7509    4.2397 H      35  UNL35       0.0000
   3540 H          11.1938   36.9424    4.8262 H      19  UNL19       0.0000
   3541 C          21.8850   32.3245    6.7094 C.ar    1  UNL1        0.0000
   3542 C          20.7822   30.6091    8.6175 C.ar    1  UNL1        0.0000
   3543 C          25.3157   37.4432    4.9337 C.2    35  UNL35       0.0000
   3544 C          17.0655   25.1872    6.6479 C.ar    1  UNL1        0.0000
   3545 C          20.5570   32.5107    7.1389 C.ar    1  UNL1        0.0000
   3546 C          22.1042   30.4185    8.1955 C.ar    1  UNL1        0.0000
   3547 C          24.5935   38.5365    5.4275 C.2    35  UNL35       0.0000
   3548 C          17.7826   24.0800    6.1568 C.ar    1  UNL1        0.0000
   3549 C          26.6487   37.2407    5.3126 C.3    35  UNL35       0.0000
   3550 C          15.7262   25.3860    6.2620 C.ar    1  UNL1        0.0000
   3551 C          22.6578   31.2752    7.2432 C.ar    1  UNL1        0.0000
   3552 C          20.0089   31.6530    8.0937 C.ar    1  UNL1        0.0000
   3553 O          23.6861   33.0459    5.3283 O.3     1  UNL1        0.0000
   3554 O          17.0471   27.1634    7.9715 O.3     1  UNL1        0.0000
   3555 O          18.8857   25.8585    8.0281 O.3     1  UNL1        0.0000
   3556 O          21.7254   34.1443    5.1816 O.3     1  UNL1        0.0000
   3557 N          25.5216   37.6309   27.1804 N.pl3  53  UNL53       0.0000
   3558 N          25.5015   39.4728   28.3468 N.pl3  53  UNL53       0.0000
   3559 C          26.8068   37.8131   27.6682 C.2    53  UNL53       0.0000
   3560 C          26.7922   38.9717   28.3968 C.2    53  UNL53       0.0000
   3561 C          25.2057   41.9246   28.0139 C.3    53  UNL53       0.0000
   3562 C          25.0883   36.5439   26.2979 C.3    53  UNL53       0.0000
   3563 C          24.7452   38.6447   27.6063 C.3    53  UNL53       0.0000
   3564 C          25.0276   40.7346   28.9544 C.3    53  UNL53       0.0000
   3565 H          27.5957   37.0953   27.4807 H      53  UNL53       0.0000
   3566 H          27.5717   39.4613   28.9649 H      53  UNL53       0.0000
   3567 H          26.2580   42.0741   27.7414 H      53  UNL53       0.0000
   3568 H          25.5088   36.6954   25.2949 H      53  UNL53       0.0000
   3569 H          24.6166   41.7938   27.0967 H      53  UNL53       0.0000
   3570 H          25.4570   35.5874   26.6882 H      53  UNL53       0.0000
   3571 H          24.8453   42.8354   28.5126 H      53  UNL53       0.0000
   3572 H          25.5824   40.8546   29.8924 H      53  UNL53       0.0000
   3573 H          23.9921   36.5470   26.2477 H      53  UNL53       0.0000
   3574 H          23.6847   38.7551   27.4181 H      53  UNL53       0.0000
   3575 H          23.9688   40.5932   29.2061 H      53  UNL53       0.0000
   3576 TI         11.4747   23.2738   24.4071 Ti      1  UNL1        0.0000
   3577 TI         22.3052   26.1550   15.0423 Ti      1  UNL1        0.0000
   3578 TI         15.5714   19.3376   22.5871 Ti      1  UNL1        0.0000
   3579 TI         17.0826   28.4998   16.8141 Ti      1  UNL1        0.0000
   3580 TI         16.0840   30.1781   14.9097 Ti      1  UNL1        0.0000
   3581 TI         17.4596   19.0833   24.5405 Ti      1  UNL1        0.0000
   3582 TI         12.4239   21.5379   22.5156 Ti      1  UNL1        0.0000
   3583 TI         20.3174   26.4576   16.8898 Ti      1  UNL1        0.0000
   3584 H          11.9766   27.1709   24.1877 H       1  UNL1        0.0000
   3585 H          23.1140   22.2490   15.3630 H       1  UNL1        0.0000
   3586 H           7.5148   22.5172   24.0247 H       1  UNL1        0.0000
   3587 H          25.6874   28.1593   15.2430 H       1  UNL1        0.0000
   3588 H          18.4352   15.0487   24.1546 H       1  UNL1        0.0000
   3589 H          12.0255   29.5882   15.2318 H       1  UNL1        0.0000
   3590 H          16.5785   28.5413   13.0366 H       1  UNL1        0.0000
   3591 H          20.4297   25.9123   13.3424 H       1  UNL1        0.0000
   3592 H          17.9695   18.4162   19.0294 H       1  UNL1        0.0000
   3593 H          15.3592   30.3368   20.4331 H       1  UNL1        0.0000
   3594 H           8.3513   24.9265   22.1597 H       1  UNL1        0.0000
   3595 H          25.0600   24.0707   17.3483 H       1  UNL1        0.0000
   3596 H          10.6524   23.4791   18.8259 H       1  UNL1        0.0000
   3597 H          12.9840   32.0059   17.2629 H       1  UNL1        0.0000
   3598 H          16.4763   33.2809   15.7652 H       1  UNL1        0.0000
   3599 H          22.9562   20.2301   16.5655 H       1  UNL1        0.0000
   3600 H          19.1752   28.1799   15.4755 H       1  UNL1        0.0000
   3601 H          14.4907   21.1860   23.8808 H       1  UNL1        0.0000
   3602 H          21.6944   21.0181   22.9302 H       1  UNL1        0.0000
   3603 H          20.2132   20.5491   23.6775 H       1  UNL1        0.0000
   3604 H          22.2685   25.4518   21.8313 H       1  UNL1        0.0000
   3605 H          21.6988   25.8103   20.2127 H       1  UNL1        0.0000
   3606 H          21.2056   16.0633   22.7401 H       1  UNL1        0.0000
   3607 H          19.9264   17.1639   23.1975 H       1  UNL1        0.0000
   3608 C          22.8832   25.4138   17.9058 C.2     1  UNL1        0.0000
   3609 C          10.5142   23.5352   21.5601 C.3     1  UNL1        0.0000
   3610 C          18.1519   18.3269   21.6624 C.3     1  UNL1        0.0000
   3611 C          15.1465   30.4703   17.7735 C.3     1  UNL1        0.0000
   3612 C          23.7793   24.8095   18.9010 C.2     1  UNL1        0.0000
   3613 C           9.5823   24.1602   20.5830 C.ar    1  UNL1        0.0000
   3614 C          19.0921   17.7126   20.7152 C.ar    1  UNL1        0.0000
   3615 C          14.2567   31.1171   18.7732 C.2     1  UNL1        0.0000
   3616 C          23.5305   24.8844   20.3074 C.3     1  UNL1        0.0000
   3617 C           9.7987   24.0402   19.1950 C.ar    1  UNL1        0.0000
   3618 C          20.2216   16.9523   21.1683 C.ar    1  UNL1        0.0000
   3619 C          13.1619   31.8900   18.3283 C.3     1  UNL1        0.0000
   3620 C          14.5112   30.9463   20.1281 C.2     1  UNL1        0.0000
   3621 C          18.8444   17.8447   19.3313 C.ar    1  UNL1        0.0000
   3622 C          24.9129   24.1105   18.4253 C.3     1  UNL1        0.0000
   3623 C           8.4821   24.8526   21.0817 C.ar    1  UNL1        0.0000
   3624 C          23.0950   22.3280   13.2189 C.ar    1  UNL1        0.0000
   3625 C          16.6253   34.1196   13.2439 C.2     1  UNL1        0.0000
   3626 C          25.5795   28.0912   13.0929 C.2     1  UNL1        0.0000
   3627 C          12.2211   29.6336   13.0735 C.ar    1  UNL1        0.0000
   3628 C          17.8293   26.1566   18.7787 C.3     1  UNL1        0.0000
   3629 C          13.0732   19.0622   20.6968 C.3     1  UNL1        0.0000
   3630 C          22.9592   23.7829   13.1957 C.3     1  UNL1        0.0000
   3631 C          16.5325   32.6861   13.2064 C.2     1  UNL1        0.0000
   3632 C          24.2816   27.4743   13.1397 C.2     1  UNL1        0.0000
   3633 C          13.6234   30.0479   13.0980 C.3     1  UNL1        0.0000
   3634 C          23.1344   21.6589   14.4486 C.ar    1  UNL1        0.0000
   3635 C          11.9875   27.7593   25.1015 C.3     1  UNL1        0.0000
   3636 C          26.2348   28.3660   14.3268 C.3     1  UNL1        0.0000
   3637 C           6.9533   22.3378   24.9400 C.ar    1  UNL1        0.0000
   3638 C          21.6391   21.2934   24.9545 C.3     1  UNL1        0.0000
   3639 C          11.5239   29.4032   14.2860 C.ar    1  UNL1        0.0000
   3640 C          18.4769   14.5216   25.1036 C.ar    1  UNL1        0.0000
   3641 C          16.6391   34.8708   14.4732 C.3     1  UNL1        0.0000
   3642 N          16.6941   34.2720   15.7113 N.3     1  UNL1        0.0000
   3643 N          21.0601   21.1106   23.7155 N.3     1  UNL1        0.0000
   3644 N          22.4496   25.5306   20.8387 N.3     1  UNL1        0.0000
   3645 N          20.5526   16.7940   22.4857 N.pl3   1  UNL1        0.0000
   3646 O          21.7069   25.8189   18.2716 O.2     1  UNL1        0.0000
   3647 O          11.2832   22.5843   21.1618 O.3     1  UNL1        0.0000
   3648 O          18.5334   18.4514   22.8835 O.3     1  UNL1        0.0000
   3649 O          15.0806   30.8999   16.5739 O.3     1  UNL1        0.0000
   3650 O          15.9170   29.5130   18.1599 O.3     1  UNL1        0.0000
   3651 O          16.9815   18.6954   21.2569 O.3     1  UNL1        0.0000
   3652 O          23.2951   25.4945   16.6941 O.2     1  UNL1        0.0000
   3653 O          10.4722   23.9714   22.7598 O.3     1  UNL1        0.0000
   3654 O          20.6226   25.2397   15.6951 O.3     1  UNL1        0.0000
   3655 O          12.9764   23.0983   23.2601 O.3     1  UNL1        0.0000
   3656 O          21.5614   27.5270   16.1450 O.3     1  UNL1        0.0000
   3657 O          11.2242   21.3736   23.7528 O.3     1  UNL1        0.0000
   3658 O          15.8307   18.1657   23.8475 O.3     1  UNL1        0.0000
   3659 O          17.5992   30.0611   16.0756 O.3     1  UNL1        0.0000
   3660 O          16.7847   20.4271   23.3834 O.3     1  UNL1        0.0000
   3661 O          15.8929   28.3040   15.5582 O.3     1  UNL1        0.0000
   3662 O          18.2019   17.3114   25.1496 O.3     1  UNL1        0.0000
   3663 O          16.4494   31.9847   14.3016 O.2     1  UNL1        0.0000
   3664 O          19.0041   20.0996   25.1445 O.2     1  UNL1        0.0000
   3665 O          14.2135   30.1489   14.2415 O.3     1  UNL1        0.0000
   3666 O          23.7423   27.1742   14.2877 O.2     1  UNL1        0.0000
   3667 O           9.5879   23.2138   25.0755 O.3     1  UNL1        0.0000
   3668 O          22.9467   24.4198   14.3171 O.3     1  UNL1        0.0000
   3669 O          11.8561   24.9961   25.1568 O.2     1  UNL1        0.0000
   3670 O          18.8144   27.6311   16.1961 O.3     1  UNL1        0.0000
   3671 O          14.1125   20.6273   23.1772 O.3     1  UNL1        0.0000
   3672 O          21.2685   26.4060   13.2633 O.3     1  UNL1        0.0000
   3673 O          16.7009   29.5081   13.0966 O.3     1  UNL1        0.0000
   3674 H          18.0545   22.5342   21.7080 H       1  UNL1        0.0000
   3675 H          14.1797   16.8718   19.5673 H       1  UNL1        0.0000
   3676 H          18.9210   31.6074   18.2215 H      54  UNL54       0.0000
   3677 H          19.0461   24.0776   19.9913 H       1  UNL1        0.0000
   3678 H          14.3494   24.7176   21.5321 H       1  UNL1        0.0000
   3679 H          10.5521   19.1775   19.7530 H       1  UNL1        0.0000
   3680 H          15.7154   22.8702   22.4513 H       1  UNL1        0.0000
   3681 H          15.3404   26.2597   19.8090 H       1  UNL1        0.0000
   3682 H          20.2065   29.6845   17.3343 H      54  UNL54       0.0000
   3683 H           6.5591   29.8759   17.9209 H      20  UNL20       0.0000
   3684 C          17.2503   25.2581   19.8040 C.ar    1  UNL1        0.0000
   3685 C          16.1476   23.5427   21.7121 C.ar    1  UNL1        0.0000
   3686 C          20.6811   30.3767   18.0283 C.2    54  UNL54       0.0000
   3687 C          12.4308   18.1207   19.7425 C.ar    1  UNL1        0.0000
   3688 C          15.9224   25.4443   20.2335 C.ar    1  UNL1        0.0000
   3689 C          17.4695   23.3521   21.2901 C.ar    1  UNL1        0.0000
   3690 C          19.9588   31.4701   18.5221 C.2    54  UNL54       0.0000
   3691 C          13.1480   17.0135   19.2514 C.ar    1  UNL1        0.0000
   3692 C          22.0140   30.1743   18.4072 C.3    54  UNL54       0.0000
   3693 C          11.0916   18.3196   19.3566 C.ar    1  UNL1        0.0000
   3694 C          18.0231   24.2087   20.3378 C.ar    1  UNL1        0.0000
   3695 C          15.3743   24.5865   21.1883 C.ar    1  UNL1        0.0000
   3696 O          19.0514   25.9794   18.4230 O.3     1  UNL1        0.0000
   3697 O          12.4125   20.0970   21.0661 O.3     1  UNL1        0.0000
   3698 O          14.2510   18.7920   21.1227 O.3     1  UNL1        0.0000
   3699 O          17.0908   27.0779   18.2762 O.3     1  UNL1        0.0000
   3700 N          20.8869   30.5644   40.2750 N.pl3  54  UNL54       0.0000
   3701 N          20.8669   32.4063   41.4414 N.pl3  54  UNL54       0.0000
   3702 C          22.1721   30.7466   40.7628 C.2    54  UNL54       0.0000
   3703 C          22.1575   31.9053   41.4914 C.2    54  UNL54       0.0000
   3704 C          20.5711   34.8581   41.1085 C.3    54  UNL54       0.0000
   3705 C          20.4537   29.4774   39.3925 C.3    54  UNL54       0.0000
   3706 C          20.1105   31.5783   40.7009 C.3    54  UNL54       0.0000
   3707 C          20.3930   33.6682   42.0490 C.3    54  UNL54       0.0000
   3708 H          22.9611   30.0289   40.5753 H      54  UNL54       0.0000
   3709 H          22.9370   32.3948   42.0595 H      54  UNL54       0.0000
   3710 H          21.6233   35.0077   40.8360 H      54  UNL54       0.0000
   3711 H          20.8741   29.6290   38.3895 H      54  UNL54       0.0000
   3712 H          19.9819   34.7274   40.1913 H      54  UNL54       0.0000
   3713 H          20.8223   28.5210   39.7828 H      54  UNL54       0.0000
   3714 H          20.2107   35.7690   41.6072 H      54  UNL54       0.0000
   3715 H          20.9478   33.7882   42.9870 H      54  UNL54       0.0000
   3716 H          19.3574   29.4805   39.3423 H      54  UNL54       0.0000
   3717 H          19.0501   31.6887   40.5127 H      54  UNL54       0.0000
   3718 H          19.3342   33.5268   42.3007 H      54  UNL54       0.0000
   3719 TI          6.8401   16.2074   37.5017 Ti      1  UNL1        0.0000
   3720 TI         17.6706   19.0886   28.1369 Ti      1  UNL1        0.0000
   3721 TI         10.9368   12.2712   35.6817 Ti      1  UNL1        0.0000
   3722 TI         12.4480   21.4333   29.9087 Ti      1  UNL1        0.0000
   3723 TI         11.4494   23.1116   28.0043 Ti      1  UNL1        0.0000
   3724 TI         12.8250   12.0168   37.6351 Ti      1  UNL1        0.0000
   3725 TI          7.7893   14.4715   35.6102 Ti      1  UNL1        0.0000
   3726 TI         15.6827   19.3911   29.9844 Ti      1  UNL1        0.0000
   3727 H           7.3420   20.1045   37.2823 H      54  UNL54       0.0000
   3728 H          18.4793   15.1825   28.4576 H       1  UNL1        0.0000
   3729 H           2.8802   15.4508   37.1193 H      22  UNL22       0.0000
   3730 H          21.0527   21.0929   28.3376 H       1  UNL1        0.0000
   3731 H          13.8006    7.9823   37.2492 H      32  UNL32       0.0000
   3732 H           7.3909   22.5217   28.3264 H       1  UNL1        0.0000
   3733 H          11.9438   21.4748   26.1312 H       1  UNL1        0.0000
   3734 H          15.7950   18.8459   26.4370 H       1  UNL1        0.0000
   3735 H          13.3349   11.3497   32.1240 H       1  UNL1        0.0000
   3736 H          10.7245   23.2703   33.5277 H       1  UNL1        0.0000
   3737 H           3.7167   17.8601   35.2543 H       1  UNL1        0.0000
   3738 H          20.4253   17.0043   30.4429 H       1  UNL1        0.0000
   3739 H           6.0178   16.4127   31.9205 H       1  UNL1        0.0000
   3740 H           8.3493   24.9395   30.3576 H       1  UNL1        0.0000
   3741 H          11.8416   26.2145   28.8598 H       1  UNL1        0.0000
   3742 H          18.3215   13.1637   29.6601 H       1  UNL1        0.0000
   3743 H          14.5406   21.1134   28.5701 H       1  UNL1        0.0000
   3744 H           9.8561   14.1196   36.9754 H       1  UNL1        0.0000
   3745 H          17.0597   13.9517   36.0248 H      54  UNL54       0.0000
   3746 H          15.5786   13.4826   36.7721 H      54  UNL54       0.0000
   3747 H          17.6338   18.3853   34.9259 H       1  UNL1        0.0000
   3748 H          17.0641   18.7439   33.3073 H       1  UNL1        0.0000
   3749 H          16.5709    8.9969   35.8347 H       1  UNL1        0.0000
   3750 H          15.2918   10.0974   36.2921 H       1  UNL1        0.0000
   3751 C          18.2486   18.3474   31.0004 C.2     1  UNL1        0.0000
   3752 C           5.8795   16.4688   34.6547 C.3     1  UNL1        0.0000
   3753 C          13.5173   11.2605   34.7570 C.3     1  UNL1        0.0000
   3754 C          10.5118   23.4038   30.8681 C.3     1  UNL1        0.0000
   3755 C          19.1446   17.7430   31.9956 C.2     1  UNL1        0.0000
   3756 C           4.9476   17.0938   33.6776 C.ar    1  UNL1        0.0000
   3757 C          14.4575   10.6461   33.8098 C.ar    1  UNL1        0.0000
   3758 C           9.6220   24.0506   31.8679 C.2     1  UNL1        0.0000
   3759 C          18.8959   17.8180   33.4020 C.3     1  UNL1        0.0000
   3760 C           5.1640   16.9738   32.2896 C.ar    1  UNL1        0.0000
   3761 C          15.5869    9.8858   34.2629 C.ar    1  UNL1        0.0000
   3762 C           8.5273   24.8236   31.4229 C.3     1  UNL1        0.0000
   3763 C           9.8765   23.8799   33.2227 C.2     1  UNL1        0.0000
   3764 C          14.2098   10.7783   32.4259 C.ar    1  UNL1        0.0000
   3765 C          20.2783   17.0441   31.5199 C.3     1  UNL1        0.0000
   3766 C           3.8475   17.7862   34.1763 C.ar    1  UNL1        0.0000
   3767 C          18.4604   15.2616   26.3135 C.ar    1  UNL1        0.0000
   3768 C          11.9906   27.0532   26.3385 C.2     1  UNL1        0.0000
   3769 C          20.9448   21.0247   26.1875 C.2     1  UNL1        0.0000
   3770 C           7.5865   22.5672   26.1681 C.ar    1  UNL1        0.0000
   3771 C          13.1947   19.0901   31.8733 C.3     1  UNL1        0.0000
   3772 C           8.4386   11.9958   33.7914 C.3     1  UNL1        0.0000
   3773 C          18.3245   16.7165   26.2903 C.3     1  UNL1        0.0000
   3774 C          11.8979   25.6197   26.3010 C.2     1  UNL1        0.0000
   3775 C          19.6470   20.4079   26.2344 C.2     1  UNL1        0.0000
   3776 C           8.9888   22.9815   26.1926 C.3     1  UNL1        0.0000
   3777 C          18.4997   14.5925   27.5432 C.ar    1  UNL1        0.0000
   3778 C           7.3529   20.6929   38.1962 C.3    55  UNL55       0.0000
   3779 C          21.6001   21.2995   27.4215 C.3     1  UNL1        0.0000
   3780 C           2.3187   15.2714   38.0346 C.2    22  UNL22       0.0000
   3781 C          17.0045   14.2270   38.0491 C.3    54  UNL54       0.0000
   3782 C           6.8893   22.3367   27.3806 C.ar    1  UNL1        0.0000
   3783 C          13.8422    7.4551   38.1982 C.2    32  UNL32       0.0000
   3784 C          12.0044   27.8044   27.5678 C.3     1  UNL1        0.0000
   3785 N          12.0595   27.2056   28.8059 N.3     1  UNL1        0.0000
   3786 N          16.4254   14.0442   36.8101 N.3    54  UNL54       0.0000
   3787 N          17.8150   18.4642   33.9333 N.3     1  UNL1        0.0000
   3788 N          15.9179    9.7276   35.5803 N.pl3   1  UNL1        0.0000
   3789 O          17.0723   18.7524   31.3662 O.2     1  UNL1        0.0000
   3790 O           6.6485   15.5179   34.2564 O.3     1  UNL1        0.0000
   3791 O          13.8987   11.3850   35.9781 O.3     1  UNL1        0.0000
   3792 O          10.4460   23.8335   29.6685 O.3     1  UNL1        0.0000
   3793 O          11.2823   22.4466   31.2545 O.3     1  UNL1        0.0000
   3794 O          12.3469   11.6289   34.3515 O.3     1  UNL1        0.0000
   3795 O          18.6605   18.4281   29.7887 O.2     1  UNL1        0.0000
   3796 O           5.8375   16.9050   35.8544 O.3     1  UNL1        0.0000
   3797 O          15.9880   18.1732   28.7897 O.3     1  UNL1        0.0000
   3798 O           8.3417   16.0318   36.3548 O.3     1  UNL1        0.0000
   3799 O          16.9268   20.4605   29.2397 O.3     1  UNL1        0.0000
   3800 O           6.5896   14.3072   36.8474 O.3     1  UNL1        0.0000
   3801 O          11.1961   11.0992   36.9422 O.3     1  UNL1        0.0000
   3802 O          12.9645   22.9946   29.1702 O.3     1  UNL1        0.0000
   3803 O          12.1500   13.3607   36.4780 O.3     1  UNL1        0.0000
   3804 O          11.2583   21.2375   28.6528 O.3     1  UNL1        0.0000
   3805 O          13.5673   10.2450   38.2442 O.3     1  UNL1        0.0000
   3806 O          11.8148   24.9182   27.3962 O.2     1  UNL1        0.0000
   3807 O          14.3694   13.0332   38.2391 O.3     1  UNL1        0.0000
   3808 O           9.5788   23.0825   27.3361 O.3     1  UNL1        0.0000
   3809 O          19.1076   20.1077   27.3823 O.2     1  UNL1        0.0000
   3810 O           4.9533   16.1473   38.1702 O.3     1  UNL1        0.0000
   3811 O          18.3121   17.3534   27.4117 O.3     1  UNL1        0.0000
   3812 O           7.2215   17.9297   38.2514 O.3     1  UNL1        0.0000
   3813 O          14.1798   20.5647   29.2907 O.3     1  UNL1        0.0000
   3814 O           9.4778   13.5609   36.2718 O.3     1  UNL1        0.0000
   3815 O          16.6339   19.3396   26.3579 O.3     1  UNL1        0.0000
   3816 O          12.0662   22.4416   26.1912 O.3     1  UNL1        0.0000
   3817 H          13.4198   15.4678   34.8026 H       1  UNL1        0.0000
   3818 H           9.5451    9.8053   32.6619 H       1  UNL1        0.0000
   3819 H          14.2863   24.5410   31.3161 H      54  UNL54       0.0000
   3820 H          14.4114   17.0111   33.0859 H       1  UNL1        0.0000
   3821 H           9.7147   17.6512   34.6267 H       1  UNL1        0.0000
   3822 H           5.9174   12.1111   32.8476 H       1  UNL1        0.0000
   3823 H          11.0808   15.8037   35.5459 H       1  UNL1        0.0000
   3824 H          10.7058   19.1933   32.9036 H       1  UNL1        0.0000
   3825 H          15.5718   22.6180   30.4289 H      54  UNL54       0.0000
   3826 H           1.9245   22.8095   31.0155 H      23  UNL23       0.0000
   3827 C          12.6157   18.1917   32.8986 C.ar    1  UNL1        0.0000
   3828 C          11.5129   16.4763   34.8067 C.ar    1  UNL1        0.0000
   3829 C          16.0464   23.3103   31.1229 C.2    54  UNL54       0.0000
   3830 C           7.7962   11.0543   32.8371 C.ar    1  UNL1        0.0000
   3831 C          11.2877   18.3778   33.3281 C.ar    1  UNL1        0.0000
   3832 C          12.8349   16.2856   34.3847 C.ar    1  UNL1        0.0000
   3833 C          15.3242   24.4036   31.6167 C.2    54  UNL54       0.0000
   3834 C           8.5133    9.9471   32.3461 C.ar    1  UNL1        0.0000
   3835 C          17.3794   23.1079   31.5018 C.3    54  UNL54       0.0000
   3836 C           6.4569   11.2531   32.4512 C.ar    1  UNL1        0.0000
   3837 C          13.3885   17.1423   33.4325 C.ar    1  UNL1        0.0000
   3838 C          10.7397   17.5201   34.2829 C.ar    1  UNL1        0.0000
   3839 O          14.4168   18.9130   31.5176 O.3     1  UNL1        0.0000
   3840 O           7.7778   13.0305   34.1607 O.3     1  UNL1        0.0000
   3841 O           9.6164   11.7256   34.2173 O.3     1  UNL1        0.0000
   3842 O          12.4561   20.0115   31.3708 O.3     1  UNL1        0.0000
   3843 N          16.2523   23.4980   53.3696 N.pl3  54  UNL54       0.0000
   3844 N          16.2323   25.3399   54.5360 N.pl3  54  UNL54       0.0000
   3845 C          17.5375   23.6802   53.8574 C.2    54  UNL54       0.0000
   3846 C          17.5229   24.8388   54.5860 C.2    54  UNL54       0.0000
   3847 C          15.9364   27.7917   54.2031 C.3    54  UNL54       0.0000
   3848 C          15.8191   22.4110   52.4871 C.3    54  UNL54       0.0000
   3849 C          15.4759   24.5118   53.7955 C.3    54  UNL54       0.0000
   3850 C          15.7583   26.6018   55.1437 C.3    54  UNL54       0.0000
   3851 H          18.3264   22.9624   53.6699 H      54  UNL54       0.0000
   3852 H          18.3024   25.3284   55.1541 H      54  UNL54       0.0000
   3853 H          16.9887   27.9412   53.9306 H      54  UNL54       0.0000
   3854 H          16.2395   22.5626   51.4841 H      54  UNL54       0.0000
   3855 H          15.3473   27.6610   53.2859 H      54  UNL54       0.0000
   3856 H          16.1877   21.4545   52.8774 H      54  UNL54       0.0000
   3857 H          15.5760   28.7026   54.7018 H      54  UNL54       0.0000
   3858 H          16.3131   26.7218   56.0816 H      54  UNL54       0.0000
   3859 H          14.7228   22.4141   52.4369 H      54  UNL54       0.0000
   3860 H          14.4154   24.6223   53.6074 H      54  UNL54       0.0000
   3861 H          14.6995   26.4603   55.3953 H      54  UNL54       0.0000
@<TRIPOS>BOND
     1   873   956    1
     2   910   916    2
     3   910   922    1
     4   909   915    2
     5   909   919    1
     6   444   527    1
     7   956   863    1
     8   916   948    1
     9  2160  2243    1
    10   481   487    2
    11   481   493    1
    12   915   949    1
    13   480   486    2
    14   480   490    1
    15    15    98    1
    16   527   434    1
    17   487   519    1
    18  2197  2203    2
    19  2197  2209    1
    20  2196  2202    2
    21  2196  2206    1
    22  1731  1814    1
    23  2243  2150    1
    24    52    58    2
    25    52    64    1
    26  2203  2235    1
    27   913   907    2
    28   913   951    1
    29   486   520    1
    30    51    57    2
    31    51    61    1
    32   914   908    2
    33   914   946    1
    34    98     5    1
    35    58    90    1
    36  3447  3530    1
    37   907   917    1
    38  1768  1774    2
    39  1768  1780    1
    40  2202  2236    1
    41  1767  1773    2
    42  1767  1777    1
    43  1302  1385    1
    44  1814  1721    1
    45   908   924    1
    46  1774  1806    1
    47   484   478    2
    48   484   522    1
    49  3484  3490    2
    50  3484  3496    1
    51    57    91    1
    52   485   479    2
    53   485   517    1
    54   955   874    1
    55   955   860    1
    56  3483  3489    2
    57  3483  3493    1
    58  3018  3101    1
    59   478   488    1
    60  3530  3437    1
    61  1339  1345    2
    62  1339  1351    1
    63  3490  3522    1
    64  2200  2194    2
    65  2200  2238    1
    66  1773  1807    1
    67  1338  1344    2
    68  1338  1348    1
    69  2201  2195    2
    70  2201  2233    1
    71  1385  1292    1
    72   479   495    1
    73  1345  1377    1
    74  2194  2204    1
    75    55    49    2
    76    55    93    1
    77  3055  3061    2
    78  3055  3067    1
    79  3489  3523    1
    80    56    50    2
    81    56    88    1
    82   526   445    1
    83   526   431    1
    84  3054  3060    2
    85  3054  3064    1
    86  2589  2672    1
    87    49    59    1
    88  3101  3008    1
    89  2195  2211    1
    90  3061  3093    1
    91  1771  1765    2
    92  1771  1809    1
    93  1344  1378    1
    94  1772  1766    2
    95  1772  1804    1
    96  2242  2161    1
    97  2242  2147    1
    98    50    66    1
    99  1765  1775    1
   100  2626  2632    2
   101  2626  2638    1
   102  3487  3481    2
   103  3487  3525    1
   104  3060  3094    1
   105    97    16    1
   106    97     2    1
   107  2625  2631    2
   108  2625  2635    1
   109  3488  3482    2
   110  3488  3520    1
   111  2672  2579    1
   112  1766  1782    1
   113  2632  2664    1
   114  3481  3491    1
   115  1342  1336    2
   116  1342  1380    1
   117  1343  1337    2
   118  1343  1375    1
   119  1813  1732    1
   120  1813  1718    1
   121  1336  1346    1
   122  3482  3498    1
   123  3058  3052    2
   124  3058  3096    1
   125  2631  2665    1
   126  3059  3053    2
   127  3059  3091    1
   128  3529  3448    1
   129  3529  3434    1
   130  1337  1353    1
   131  3052  3062    1
   132  1384  1303    1
   133  1384  1289    1
   134  3053  3069    1
   135  2629  2623    2
   136  2629  2667    1
   137  2630  2624    2
   138  2630  2662    1
   139  3100  3019    1
   140  3100  3005    1
   141  2623  2633    1
   142  2624  2640    1
   143  2671  2590    1
   144  2671  2576    1
   145   948   863    1
   146   922   872    1
   147   949   860    1
   148   519   434    1
   149   946   863    1
   150   951   860    1
   151   919  2209    2
   152   919   870    1
   153  2235  2150    1
   154   493   443    1
   155   520   431    1
   156    90     5    1
   157   517   434    1
   158   522   431    1
   159  2209  2159    1
   160  2236  2147    1
   161   490  1780    2
   162   490   441    1
   163  1806  1721    1
   164  2233  2150    1
   165    64    14    1
   166    91     2    1
   167  2238  2147    1
   168    88     5    1
   169  2206  3496    2
   170  2206  2157    1
   171  3522  3437    1
   172    93     2    1
   173  1780  1730    1
   174  1807  1718    1
   175    61  1351    2
   176    61    12    1
   177  1377  1292    1
   178  1804  1721    1
   179   917   495    2
   180   917   868    1
   181  1809  1718    1
   182  3496  3446    1
   183  3523  3434    1
   184  1777  3067    2
   185  1777  1728    1
   186   924   925    1
   187  3093  3008    1
   188  3520  3437    1
   189  1351  1301    1
   190  1378  1289    1
   191  3525  3434    1
   192  1375  1292    1
   193   488    66    2
   194   488   439    1
   195  3493  3444    1
   196  1380  1289    1
   197  3067  3017    1
   198  3094  3005    1
   199  1348  2638    2
   200  1348  1299    1
   201   495   496    1
   202  2664  2579    1
   203  3091  3008    1
   204  2204  1782    2
   205  2204  2155    1
   206  3096  3005    1
   207    59    10    1
   208  3064  3015    1
   209  2211  2212    1
   210  2638  2588    1
   211  2665  2576    1
   212    66    67    1
   213  2662  2579    1
   214  1775  1353    2
   215  1775  1726    1
   216  2667  2576    1
   217  2635  2586    1
   218  1782  1783    1
   219  3491  3069    2
   220  3491  3442    1
   221  1346  1297    1
   222  3498  3499    1
   223  1353  1354    1
   224  3062  2640    2
   225  3062  3013    1
   226  3069  3070    1
   227  2633  2584    1
   228  2640  2641    1
   229   863   944    1
   230   863   942    1
   231   863   932    1
   232   434   515    1
   233   434   513    1
   234   434   503    1
   235  2150  2231    1
   236  2150  2229    1
   237  2150  2219    1
   238     5    86    1
   239     5    84    1
   240     5    74    1
   241   860   937    1
   242   860   939    1
   243   860   935    1
   244  1721  1802    1
   245  1721  1800    1
   246  1721  1790    1
   247  3437  3518    1
   248  3437  3516    1
   249  3437  3506    1
   250   431   508    1
   251   431   510    1
   252   431   506    1
   253  1292  1373    1
   254  1292  1371    1
   255  1292  1361    1
   256  2147  2224    1
   257  2147  2226    1
   258  2147  2222    1
   259  3008  3089    1
   260  3008  3087    1
   261  3008  3077    1
   262     2    79    1
   263     2    81    1
   264     2    77    1
   265  1718  1795    1
   266  1718  1797    1
   267  1718  1793    1
   268  2579  2660    1
   269  2579  2658    1
   270  2579  2648    1
   271  3434  3511    1
   272  3434  3513    1
   273  3434  3509    1
   274  1289  1366    1
   275  1289  1368    1
   276  1289  1364    1
   277  3005  3082    1
   278  3005  3084    1
   279  3005  3080    1
   280  2576  2653    1
   281  2576  2655    1
   282  2576  2651    1
   283   883   953    1
   284   454   524    1
   285   944   862    1
   286  2170  2240    1
   287    25    95    1
   288   515   433    1
   289  1741  1811    1
   290  2231  2149    1
   291  3457  3527    1
   292    86     4    1
   293  1312  1382    1
   294   937   866    1
   295  1802  1720    1
   296  3028  3098    1
   297   925   881    1
   298  3518  3436    1
   299   508   437    1
   300  1373  1291    1
   301  2599  2669    1
   302   496   452    1
   303   496   882    1
   304  2224  2153    1
   305  3089  3007    1
   306  2212  2168    1
   307    79     8    1
   308    67    23    1
   309    67   453    1
   310  1795  1724    1
   311  2660  2578    1
   312  1783  1739    1
   313  1783  2169    1
   314  3511  3440    1
   315  3499  3455    1
   316  1366  1295    1
   317  1354  1310    1
   318  1354  1740    1
   319  3082  3011    1
   320  3070  3026    1
   321  3070  3456    1
   322  2653  2582    1
   323  2641  2597    1
   324  2641  3027    1
   325   942   862    1
   326   513   433    1
   327   939   866    1
   328  2229  2149    1
   329    84     4    1
   330   953   866    1
   331   510   437    1
   332  1800  1720    1
   333  2226  2153    1
   334   524   437    1
   335  3516  3436    1
   336    81     8    1
   337  1371  1291    1
   338  2240  2153    1
   339  1797  1724    1
   340    95     8    1
   341  3087  3007    1
   342  3513  3440    1
   343  1811  1724    1
   344  1368  1295    1
   345  2658  2578    1
   346  3527  3440    1
   347  3084  3011    1
   348  1382  1295    1
   349  3098  3011    1
   350  2655  2582    1
   351  2669  2582    1
   352   932   894    1
   353   503   465    1
   354  2219  2181    1
   355    74    36    1
   356   935   891    1
   357  1790  1752    1
   358   506   462    1
   359  3506  3468    1
   360  1361  1323    1
   361  2222  2178    1
   362    77    33    1
   363  3077  3039    1
   364   862   933    1
   365   862   982    1
   366  1793  1749    1
   367  2648  2610    1
   368   433   504    1
   369   433   553    1
   370  3509  3465    1
   371   866   929    1
   372   866   979    1
   373  1364  1320    1
   374  2149  2220    1
   375  2149  2269    1
   376     4    75    1
   377     4   124    1
   378  3080  3036    1
   379   437   500    1
   380   437   550    1
   381  1720  1791    1
   382  1720  1840    1
   383  2153  2216    1
   384  2153  2266    1
   385  2651  2607    1
   386  3436  3507    1
   387  3436  3556    1
   388     8    71    1
   389     8   121    1
   390  1291  1362    1
   391  1291  1411    1
   392  1724  1787    1
   393  1724  1837    1
   394  3007  3078    1
   395  3007  3127    1
   396  3440  3503    1
   397  3440  3553    1
   398  1295  1358    1
   399  1295  1408    1
   400  2578  2649    1
   401  2578  2698    1
   402  3011  3074    1
   403  3011  3124    1
   404  2582  2645    1
   405  2582  2695    1
   406   880   902    1
   407   451   473    1
   408   965   969    1
   409   878   905    1
   410  2167  2189    1
   411    22    44    1
   412   536   540    1
   413   449   476    1
   414  1738  1760    1
   415  2252  2256    1
   416  2165  2192    1
   417  3454  3476    1
   418   107   111    1
   419    20    47    1
   420  1309  1331    1
   421  1823  1827    1
   422  1736  1763    1
   423  3025  3047    1
   424  3539  3543    1
   425  3452  3479    1
   426  1394  1398    1
   427  1307  1334    1
   428  2596  2618    1
   429  3110  3114    1
   430  3023  3050    1
   431  2681  2685    1
   432  2594  2621    1
   433   894   933    1
   434   894   898    1
   435   465   504    1
   436   465   469    1
   437  2181  2220    1
   438  2181  2185    1
   439    36    75    1
   440    36    40    1
   441   891   929    1
   442   891   895    1
   443  1752  1791    1
   444  1752  1756    1
   445  3468  3507    1
   446  3468  3472    1
   447   462   500    1
   448   462   466    1
   449  1323  1362    1
   450  1323  1327    1
   451  2178  2216    1
   452  2178  2182    1
   453  3039  3078    1
   454  3039  3043    1
   455  2253   975    1
   456    33    71    1
   457    33    37    1
   458   969   975    1
   459   969   973    2
   460  1749  1787    1
   461  1749  1753    1
   462  2610  2649    1
   463  2610  2614    1
   464  1824   546    1
   465   540   546   ar
   466   540   544   ar
   467  3465  3503    1
   468  3465  3469    2
   469  3540  2262    1
   470  1320  1358    1
   471  1320  1324    1
   472  2256  2262    1
   473  2256  2260    2
   474  1395   117    1
   475   111   117   ar
   476   111   115   ar
   477  3036  3074    1
   478  3036  3040    2
   479  3111  1833    1
   480  1827  1833   ar
   481  1827  1831   ar
   482  2607  2645    1
   483  2607  2611    2
   484  3543  3549    1
   485  3543  3547    2
   486  2682  1404    1
   487   959   973    1
   488  1398  1404   ar
   489  1398  1402   ar
   490  3114  3120    1
   491  3114  3118    2
   492   982   911    1
   493   530   544    1
   494  2246  2260    1
   495  2685  2691    1
   496  2685  2689    2
   497   902   898    1
   498   553   482    1
   499   101   115    1
   500  2269  2198    1
   501  1817  1831    1
   502   473   469   ar
   503   473   904   ar
   504   124    53    1
   505  3533  3547    1
   506  2189  2185    1
   507  1840  1769    1
   508   979   911    1
   509  1388  1402    1
   510   905   895   ar
   511   905  2187   ar
   512    44    40   ar
   513    44   475   ar
   514  3556  3485    1
   515  3104  3118    1
   516   546  2261   ar
   517  1760  1756   ar
   518  1760  2191   ar
   519  1411  1340    1
   520   550   482    1
   521   476   466   ar
   522   476  1758   ar
   523  3476  3472    1
   524  3127  3056    1
   525  2266  2198    1
   526  2675  2689    1
   527  2192  2182   ar
   528  2192  3474   ar
   529   117  1832   ar
   530  1331  1327   ar
   531  1331  1762   ar
   532   121    53    1
   533    47    37   ar
   534    47  1329   ar
   535  1833  3548   ar
   536  3047  3043   ar
   537  3047  3478   ar
   538  2698  2627    1
   539  1837  1769    1
   540  1763  1753   ar
   541  1763  3045   ar
   542   544  2263   ar
   543  3553  3485    1
   544  3479  3469    1
   545  1404  3119   ar
   546  2618  2614   ar
   547  2618  3049   ar
   548  1408  1340    1
   549  1334  1324   ar
   550  1334  2616   ar
   551   115  1834   ar
   552  3124  3056    1
   553  3050  3040    1
   554  1831  3550   ar
   555  2695  2627    1
   556  2621  2611    1
   557  1402  3121   ar
   558   898   903    2
   559   911   967    1
   560   879   900    1
   561   469   474   ar
   562   482   538    1
   563  2185  2190    2
   564  2198  2254    1
   565   450   471    1
   566    40    45   ar
   567    53   109    1
   568   895   899   ar
   569  2166  2187    1
   570  1756  1761   ar
   571  1769  1825    1
   572    21    42    1
   573  3472  3477    2
   574   466   470   ar
   575  3485  3541    1
   576  1737  1758    1
   577  1327  1332   ar
   578  1340  1396    1
   579  2182  2186   ar
   580  3453  3474    1
   581  3043  3048   ar
   582    37    41   ar
   583  3056  3112    1
   584  1308  1329    1
   585   875   904    1
   586  1753  1757   ar
   587  3024  3045    1
   588  2614  2619   ar
   589  2627  2683    1
   590  3469  3473    1
   591   446   475    1
   592  1324  1328   ar
   593  2595  2616    1
   594  2162  2191    1
   595  3040  3044    1
   596    17    46    1
   597  1733  1762    1
   598  2611  2615    1
   599   900   896    1
   600  3449  3478    1
   601  1304  1333    1
   602   974   958    1
   603   974   970    1
   604   471   467    1
   605  3020  3049    1
   606  2187  2183   ar
   607   545   529    1
   608   545   541    1
   609    42    38    1
   610  2591  2620    1
   611   904   897   ar
   612  2261  2245    1
   613  2261  2257   ar
   614  1758  1754   ar
   615   976   970    1
   616   976   962    1
   617   116   100    1
   618   116   112    1
   619  3474  3470   ar
   620   475   468   ar
   621  1832  1816    1
   622  1832  1828   ar
   623  1329  1325   ar
   624   547   541    1
   625   547   533    1
   626  2191  2184   ar
   627  3548  3532    1
   628  3548  3544   ar
   629  3045  3041   ar
   630    46    39    1
   631  2263  2257   ar
   632  2263  2249    1
   633  1403  1387    1
   634  1403  1399    1
   635   118   112    1
   636   118   104    1
   637  1762  1755   ar
   638  3119  3103    1
   639  3119  3115   ar
   640  2616  2612   ar
   641  1834  1828   ar
   642  1834  1820    1
   643  3478  3471   ar
   644  1333  1326    1
   645  3550  3544   ar
   646  3550  3536    1
   647  2690  2674    1
   648  2690  2686    1
   649  1405  1399    1
   650  1405  1391    1
   651  3049  3042   ar
   652  3121  3115   ar
   653  3121  3107    1
   654  2620  2613    1
   655  2692  2686    1
   656  2692  2678    1
   657   970   912    2
   658   541   483    2
   659   967   971   ar
   660   967   977   ar
   661   964   971    1
   662  2257  2199    1
   663   112    54    2
   664   538   542   ar
   665   538   548   ar
   666   535   542    1
   667  1828  1770    1
   668  2254  2258   ar
   669  2254  2264   ar
   670  2251  2258    1
   671   109   113   ar
   672   109   119   ar
   673  3544  3486    1
   674   106   113    1
   675  1399  1341    2
   676  1825  1829   ar
   677  1825  1835   ar
   678  1822  1829    1
   679  3115  3057    1
   680  3541  3545   ar
   681  3541  3551   ar
   682  3538  3545    1
   683   960   977    1
   684  1396  1400   ar
   685  1396  1406   ar
   686  1393  1400    1
   687  2686  2628    2
   688  3112  3116   ar
   689  3112  3122   ar
   690  3109  3116    1
   691   531   548    1
   692  2247  2264    1
   693  2683  2687   ar
   694  2683  2693   ar
   695  2680  2687    1
   696   102   119    1
   697   903   876    1
   698  1818  1835    1
   699  3534  3551    1
   700   474   447    1
   701   474   901   ar
   702  1389  1406    1
   703   888   927    1
   704  2190  2163    1
   705  3105  3122    1
   706   971   978   ar
   707    45    18    1
   708    45   472   ar
   709   459   498    1
   710  1761  1734    1
   711  1761  2188   ar
   712  2676  2693    1
   713   542   549   ar
   714  2175  2214    1
   715  3477  3450    1
   716   899   927    1
   717   899  2193   ar
   718  2258  2265   ar
   719    30    69    1
   720  1332  1305    1
   721  1332  1759   ar
   722   977   972   ar
   723   113   120   ar
   724  1746  1785    1
   725  3048  3021    1
   726  3048  3475   ar
   727   470   498    1
   728   470  1764   ar
   729  1829  1836   ar
   730  3462  3501    1
   731   548   543   ar
   732  2186  2214    1
   733  2186  3480   ar
   734  3545  3552   ar
   735  1317  1356    1
   736  2619  2592    1
   737  2619  3046   ar
   738    41    69    1
   739    41  1335   ar
   740  2264  2259   ar
   741  1400  1407   ar
   742  3033  3072    1
   743   119   114   ar
   744  1757  1785    1
   745  1757  3051   ar
   746  3116  3123   ar
   747  1835  1830   ar
   748  3473  3501    1
   749  2604  2643    1
   750  1328  1356    1
   751  1328  2622   ar
   752  3551  3546   ar
   753  2687  2694   ar
   754  1406  1401   ar
   755  3044  3072    1
   756  3122  3117   ar
   757   896   906    2
   758   896   892    1
   759  2615  2643    1
   760  2693  2688   ar
   761   467   477    2
   762   467   463    1
   763  2183  2193   ar
   764  2183  2179    1
   765    38    48    2
   766    38    34    1
   767   912   980    1
   768   912   981    1
   769   897   901   ar
   770   897   893    1
   771  1754  1764   ar
   772  1754  1750    1
   773   483   551    1
   774   483   552    1
   775  3470  3480   ar
   776  3470  3466    1
   777   468   472   ar
   778   468   464    1
   779  1325  1335   ar
   780  1325  1321    1
   781  2199  2267    1
   782  2199  2268    1
   783  2184  2188   ar
   784  2184  2180    1
   785    54   122    1
   786    54   123    1
   787  3041  3051   ar
   788  3041  3037    1
   789    39    43    2
   790    39    35    1
   791   927   887    1
   792  1770  1838    1
   793  1770  1839    1
   794  1755  1759   ar
   795  1755  1751    1
   796  2612  2622   ar
   797  2612  2608    1
   798  3486  3554    1
   799  3486  3555    1
   800  3471  3475   ar
   801  3471  3467    1
   802   498   458    1
   803  1341  1409    1
   804  1341  1410    1
   805  1326  1330    2
   806  1326  1322    1
   807  2214  2174    1
   808  3057  3125    1
   809  3057  3126    1
   810  3042  3046   ar
   811  3042  3038    1
   812    69    29    1
   813  1785  1745    1
   814  2628  2696    1
   815  2628  2697    1
   816  2613  2617    2
   817  2613  2609    1
   818  3501  3461    1
   819  1356  1316    1
   820   980   865    1
   821  3072  3032    1
   822   906   877    1
   823   551   436    1
   824   981   861    1
   825  2643  2603    1
   826   477   448    1
   827  2267  2152    1
   828   930   892    1
   829   930   865    1
   830   901   928    1
   831  2193  2164    1
   832   122     7    1
   833   552   432    1
   834   978   961    1
   835   978   968   ar
   836    48    19    1
   837  1838  1723    1
   838  2268  2148    1
   839   501   463    1
   840   501   436    1
   841   472   499    1
   842  1764  1735    1
   843   123     3    1
   844   549   532    1
   845   549   539   ar
   846  3554  3439    1
   847  2217  2179    1
   848  2217  2152    1
   849   934   893    1
   850   934   861    1
   851  2188  2215    1
   852  3480  3451    1
   853  1409  1294    1
   854  1839  1719    1
   855    72    34    1
   856    72     7    1
   857  2265  2248    1
   858  2265  2255   ar
   859    43    70    1
   860  1335  1306    1
   861   972   957    1
   862   972   968   ar
   863   120   103    1
   864   120   110   ar
   865  3125  3010    1
   866  3555  3435    1
   867  1788  1750    1
   868  1788  1723    1
   869   505   464    1
   870   505   432    1
   871  1759  1786    1
   872  3051  3022    1
   873  1410  1290    1
   874  1836  1819    1
   875  1836  1826   ar
   876  3504  3466    1
   877  3504  3439    1
   878  2221  2180    1
   879  2221  2148    1
   880   543   528    1
   881   543   539   ar
   882  3475  3502    1
   883  2696  2581    1
   884  3126  3006    1
   885  1359  1321    1
   886  1359  1294    1
   887  3552  3535    1
   888  3552  3542   ar
   889    76    35    1
   890    76     3    1
   891  1330  1357    1
   892  2622  2593    1
   893  2259  2244    1
   894  2259  2255   ar
   895  1407  1390    1
   896  1407  1397   ar
   897  3075  3037    1
   898  3075  3010    1
   899  1792  1751    1
   900  1792  1719    1
   901   114    99    1
   902   114   110   ar
   903  3046  3073    1
   904  2697  2577    1
   905  3123  3106    1
   906  3123  3113   ar
   907  3508  3467    1
   908  3508  3435    1
   909  1830  1815    1
   910  1830  1826   ar
   911  2646  2608    1
   912  2646  2581    1
   913  1363  1322    1
   914  1363  1290    1
   915  2617  2644    1
   916  3546  3531    1
   917  3546  3542   ar
   918  2694  2677    1
   919  2694  2684   ar
   920  3079  3038    1
   921  3079  3006    1
   922  1401  1386    1
   923  1401  1397   ar
   924  3117  3102    1
   925  3117  3113   ar
   926  2650  2609    1
   927  2650  2577    1
   928   892   936    1
   929  2688  2673    1
   930  2688  2684   ar
   931   463   507    1
   932  2179  2223    1
   933   893   931    1
   934    34    78    1
   935  1750  1794    1
   936   968   963    1
   937   464   502    1
   938  3466  3510    1
   939  2180  2218    1
   940  1321  1365    1
   941   539   534    1
   942    35    73    1
   943  3037  3081    1
   944  2255  2250    1
   945  1751  1789    1
   946   110   105    1
   947  3467  3505    1
   948  2608  2652    1
   949  1826  1821    1
   950  1322  1360    1
   951  3542  3537    1
   952  3038  3076    1
   953  1397  1392    1
   954  3113  3108    1
   955  2609  2647    1
   956  2684  2679    1
   957   928   889    1
   958   928   890    1
   959   865   954    1
   960   865   938    1
   961   865   940    1
   962   499   460    1
   963   499   461    1
   964   436   525    1
   965   436   509    1
   966   436   511    1
   967  2215  2176    1
   968  2215  2177    1
   969   861   943    1
   970   861   941    1
   971    70    31    1
   972    70    32    1
   973  2152  2241    1
   974  2152  2225    1
   975  2152  2227    1
   976     7    96    1
   977     7    80    1
   978     7    82    1
   979  1786  1747    1
   980  1786  1748    1
   981   432   514    1
   982   432   512    1
   983  1723  1812    1
   984  1723  1796    1
   985  1723  1798    1
   986  3502  3463    1
   987  3502  3464    1
   988  2148  2230    1
   989  2148  2228    1
   990  1357  1318    1
   991  1357  1319    1
   992  3439  3528    1
   993  3439  3512    1
   994  3439  3514    1
   995     3    85    1
   996     3    83    1
   997  1294  1383    1
   998  1294  1367    1
   999  1294  1369    1
  1000  3073  3034    1
  1001  3073  3035    1
  1002  1719  1801    1
  1003  1719  1799    1
  1004  3010  3099    1
  1005  3010  3083    1
  1006  3010  3085    1
  1007   936   859    1
  1008  3435  3517    1
  1009  3435  3515    1
  1010  2644  2605    1
  1011  2644  2606    1
  1012  1290  1372    1
  1013  1290  1370    1
  1014  2581  2670    1
  1015  2581  2654    1
  1016  2581  2656    1
  1017   507   430    1
  1018  3006  3088    1
  1019  3006  3086    1
  1020  2223  2146    1
  1021    78     1    1
  1022  2577  2659    1
  1023  2577  2657    1
  1024   931   864    1
  1025  1794  1717    1
  1026   885   926    1
  1027  3510  3433    1
  1028   502   435    1
  1029  1365  1288    1
  1030  2218  2151    1
  1031   456   497    1
  1032  3081  3004    1
  1033    73     6    1
  1034  2172  2213    1
  1035  1789  1722    1
  1036    27    68    1
  1037  2652  2575    1
  1038  3505  3438    1
  1039  1743  1784    1
  1040  1360  1293    1
  1041  3459  3500    1
  1042  3076  3009    1
  1043  1314  1355    1
  1044  3030  3071    1
  1045  2647  2580    1
  1046   954   884    1
  1047  2601  2642    1
  1048   525   455    1
  1049   938   859    1
  1050  2241  2171    1
  1051    96    26    1
  1052   509   430    1
  1053  1812  1742    1
  1054  2225  2146    1
  1055  3528  3458    1
  1056    80     1    1
  1057  1383  1313    1
  1058   943   864    1
  1059  1796  1717    1
  1060  3099  3029    1
  1061  3512  3433    1
  1062   514   435    1
  1063  1367  1288    1
  1064  2670  2600    1
  1065  2230  2151    1
  1066  3083  3004    1
  1067    85     6    1
  1068  1801  1722    1
  1069  2654  2575    1
  1070  3517  3438    1
  1071  1372  1293    1
  1072  3088  3009    1
  1073  2659  2580    1
  1074   886   926    1
  1075   926   921    1
  1076   457   497    1
  1077   940   859    1
  1078  2173  2213    1
  1079   497   492    1
  1080    28    68    1
  1081  2213  2208    1
  1082   511   430    1
  1083  1744  1784    1
  1084    68    63    1
  1085  2227  2146    1
  1086   941   864    1
  1087  3460  3500    1
  1088  1784  1779    1
  1089    82     1    1
  1090  1315  1355    1
  1091  3500  3495    1
  1092  1798  1717    1
  1093   512   435    1
  1094  3031  3071    1
  1095  1355  1350    1
  1096  3514  3433    1
  1097  2228  2151    1
  1098  3071  3066    1
  1099  1369  1288    1
  1100    83     6    1
  1101  2602  2642    1
  1102  3085  3004    1
  1103  1799  1722    1
  1104  2642  2637    1
  1105   869   920    1
  1106  3515  3438    1
  1107  2656  2575    1
  1108  1370  1293    1
  1109   440   491    1
  1110  3086  3009    1
  1111  2156  2207    1
  1112    11    62    1
  1113  2657  2580    1
  1114   871   923    1
  1115  1727  1778    1
  1116   867   918    1
  1117  3443  3494    1
  1118   442   494    1
  1119  1298  1349    1
  1120  2158  2210    1
  1121   438   489    1
  1122  3014  3065    1
  1123    13    65    1
  1124  2154  2205    1
  1125  1729  1781    1
  1126     9    60    1
  1127  2585  2636    1
  1128  3445  3497    1
  1129  1725  1776    1
  1130  1300  1352    1
  1131  3441  3492    1
  1132  3016  3068    1
  1133  1296  1347    1
  1134   859   950    1
  1135   859   952    1
  1136  3012  3063    1
  1137  2587  2639    1
  1138   430   521    1
  1139   430   523    1
  1140  2583  2634    1
  1141  2146  2237    1
  1142  2146  2239    1
  1143     1    92    1
  1144     1    94    1
  1145   864   947    1
  1146   864   945    1
  1147   864  1098    1
  1148  1717  1808    1
  1149  1717  1810    1
  1150  3433  3524    1
  1151  3433  3526    1
  1152   435   518    1
  1153   435   516    1
  1154   435   669    1
  1155  1288  1379    1
  1156  1288  1381    1
  1157  2151  2234    1
  1158  2151  2232    1
  1159  2151  2385    1
  1160  3004  3095    1
  1161  3004  3097    1
  1162     6    89    1
  1163     6    87    1
  1164     6   240    1
  1165  1722  1805    1
  1166  1722  1803    1
  1167  1722  1956    1
  1168  2575  2666    1
  1169  2575  2668    1
  1170  3438  3521    1
  1171  3438  3519    1
  1172  3438  3672    1
  1173  1293  1376    1
  1174  1293  1374    1
  1175  1293  1527    1
  1176  3009  3092    1
  1177  3009  3090    1
  1178  3009  3243    1
  1179  2580  2663    1
  1180  2580  2661    1
  1181  2580  2814    1
  1182   920  1053    1
  1183   921  2207   ar
  1184   921  1052   ar
  1185   491   624    1
  1186   492  1778   ar
  1187   492   623   ar
  1188  2207  2340   ar
  1189  2208  3494   ar
  1190  2208  2339   ar
  1191    62   195    1
  1192    63  1349   ar
  1193    63   194   ar
  1194   950  1059    1
  1195  1778  1911   ar
  1196  1779  3065   ar
  1197  1779  1910   ar
  1198   918  1051    1
  1199   923   489   ar
  1200   923  1050   ar
  1201  3494  3627   ar
  1202   521   630    1
  1203  3495  3626    1
  1204  1349  1482   ar
  1205   947  1058    1
  1206   945  1056    1
  1207   952  1057    1
  1208  1350  2636   ar
  1209  1350  1481   ar
  1210   489   622   ar
  1211   494    60   ar
  1212   494   621   ar
  1213  2237  2346    1
  1214  3065  3198   ar
  1215    92   201    1
  1216  3066  3197    1
  1217  2205  2338    1
  1218  2210  1776   ar
  1219  2210  2337   ar
  1220   518   629    1
  1221   516   627    1
  1222   523   628    1
  1223    60   193   ar
  1224    65   192    1
  1225  1808  1917    1
  1226  2636  2769   ar
  1227  2234  2345    1
  1228  2232  2343    1
  1229  2239  2344    1
  1230  2637  2768    1
  1231  1776  1909   ar
  1232  1781  1347   ar
  1233  1781  1908   ar
  1234  3524  3633    1
  1235    89   200    1
  1236    87   198    1
  1237    94   199    1
  1238  1379  1488    1
  1239  3492  3625    1
  1240  3497  3063   ar
  1241  3497  3624   ar
  1242  1805  1916    1
  1243  1803  1914    1
  1244  1810  1915    1
  1245  1347  1480   ar
  1246  1352  1479    1
  1247  3095  3204    1
  1248  3521  3632    1
  1249  3519  3630    1
  1250  3526  3631    1
  1251  3063  3196   ar
  1252  3068  2634   ar
  1253  3068  3195   ar
  1254  1376  1487    1
  1255  1374  1485    1
  1256  1381  1486    1
  1257  2666  2775    1
  1258  3092  3203    1
  1259  3090  3201    1
  1260  3097  3202    1
  1261  2634  2767   ar
  1262  2639  2766    1
  1263  2663  2774    1
  1264  2661  2772    1
  1265  2668  2773    1
  1266  1016  1099    1
  1267  1053  1059    2
  1268  1053  1065    1
  1269  1052  1058    1
  1270  1052  1062   ar
  1271   587   670    1
  1272  1099  1006    1
  1273  1059  1091    1
  1274  2303  2386    1
  1275   624   630    2
  1276   624   636    1
  1277  1058  1092    1
  1278   623   629    1
  1279   623   633   ar
  1280   158   241    1
  1281   670   577    1
  1282   630   662    1
  1283  2340  2346    1
  1284  2340  2352   ar
  1285  2339  2345    1
  1286  2339  2349   ar
  1287  1874  1957    1
  1288  2386  2293    1
  1289   195   201    2
  1290   195   207    1
  1291  2346  2378    1
  1292  1056  1050    1
  1293  1056  1094    1
  1294   629   663    1
  1295   194   200    1
  1296   194   204   ar
  1297  1057  1051    2
  1298  1057  1089    1
  1299   241   148    1
  1300   201   233    1
  1301  3590  3673    1
  1302  1050  1060   ar
  1303  1911  1917    1
  1304  1911  1923   ar
  1305  2345  2379    1
  1306  1910  1916    1
  1307  1910  1920   ar
  1308  1445  1528    1
  1309  1957  1864    1
  1310  1051  1067    1
  1311  1917  1949    1
  1312   627   621    1
  1313   627   665    1
  1314  3627  3633    1
  1315  3627  3639   ar
  1316   200   234    1
  1317   628   622    1
  1318   628   660    1
  1319  1098  1017    1
  1320  3626  3632    2
  1321  3626  3636    1
  1322  3161  3244    1
  1323   621   631   ar
  1324  3673  3580    1
  1325  1482  1488    1
  1326  1482  1494   ar
  1327  3633  3665    1
  1328  2343  2337    1
  1329  2343  2381    1
  1330  1916  1950    1
  1331  1481  1487    1
  1332  1481  1491   ar
  1333  2344  2338    2
  1334  2344  2376    1
  1335  1528  1435    1
  1336   622   638   ar
  1337  1488  1520    1
  1338  2337  2347   ar
  1339   198   192    2
  1340   198   236    1
  1341  3198  3204    1
  1342  3198  3210   ar
  1343  3632  3666    1
  1344   199   193    1
  1345   199   231    1
  1346   669   588    1
  1347  3197  3203    2
  1348  3197  3207    1
  1349  2732  2815    1
  1350   192   202    1
  1351  3244  3151    1
  1352  2338  2354    1
  1353  3204  3236    1
  1354  1914  1908    1
  1355  1914  1952    1
  1356  1487  1521    1
  1357  1915  1909    1
  1358  1915  1947    1
  1359  2385  2304    1
  1360   193   209   ar
  1361  1908  1918   ar
  1362  2769  2775    1
  1363  2769  2781   ar
  1364  3630  3624    1
  1365  3630  3668    1
  1366  3203  3237    1
  1367   240   159    1
  1368  2768  2774    2
  1369  2768  2778    1
  1370  3631  3625    2
  1371  3631  3663    1
  1372  2815  2722    1
  1373  1909  1925   ar
  1374  2775  2807    1
  1375  3624  3634   ar
  1376  1485  1479    2
  1377  1485  1523    1
  1378  1486  1480    1
  1379  1486  1518    1
  1380  1956  1875    1
  1381  1479  1489    1
  1382  3625  3641    1
  1383  3201  3195    1
  1384  3201  3239    1
  1385  2774  2808    1
  1386  3202  3196    1
  1387  3202  3234    1
  1388  3672  3591    1
  1389  1480  1496   ar
  1390  3195  3205   ar
  1391  1527  1446    1
  1392  3196  3212   ar
  1393  2772  2766    2
  1394  2772  2810    1
  1395  2773  2767    1
  1396  2773  2805    1
  1397  3243  3162    1
  1398  2766  2776    1
  1399  2767  2783   ar
  1400  2814  2733    1
  1401  1091  1006    1
  1402  1065  1015    1
  1403  1092  1003    1
  1404   662   577    1
  1405  1089  1006    1
  1406  1094  1003    1
  1407  1062  2352   ar
  1408  1062  1013    1
  1409  2378  2293    1
  1410   636   586    1
  1411   663   574    1
  1412   233   148    1
  1413   660   577    1
  1414   665   574    1
  1415  2352  2302    1
  1416  2379  2290    1
  1417   633  1923   ar
  1418   633   584    1
  1419  1949  1864    1
  1420  2376  2293    1
  1421   207   157    1
  1422   234   145    1
  1423  2381  2290    1
  1424   231   148    1
  1425  2349  3639   ar
  1426  2349  2300    1
  1427  3665  3580    1
  1428   236   145    1
  1429  1923  1873    1
  1430  1950  1861    1
  1431   204  1494   ar
  1432   204   155    1
  1433  1520  1435    1
  1434  1947  1864    1
  1435  1060   638   ar
  1436  1060  1011    1
  1437  1952  1861    1
  1438  3639  3589    1
  1439  3666  3577    1
  1440  1920  3210   ar
  1441  1920  1871    1
  1442  1067  1068    1
  1443  3236  3151    1
  1444  3663  3580    1
  1445  1494  1444    1
  1446  1521  1432    1
  1447  3668  3577    1
  1448  1518  1435    1
  1449   631   209   ar
  1450   631   582    1
  1451  3636  3587    1
  1452  1523  1432    1
  1453  3210  3160    1
  1454  3237  3148    1
  1455  1491  2781   ar
  1456  1491  1442    1
  1457   638   639    1
  1458  2807  2722    1
  1459  3234  3151    1
  1460  2347  1925   ar
  1461  2347  2298    1
  1462  3239  3148    1
  1463   202   153    1
  1464  3207  3158    1
  1465  2354  2355    1
  1466  2781  2731    1
  1467  2808  2719    1
  1468   209   210    1
  1469  2805  2722    1
  1470  1918  1496   ar
  1471  1918  1869    1
  1472  2810  2719    1
  1473  2778  2729    1
  1474  1925  1926    1
  1475  3634  3212   ar
  1476  3634  3585    1
  1477  1489  1440    1
  1478  3641  3642    1
  1479  1496  1497    1
  1480  3205  2783   ar
  1481  3205  3156    1
  1482  3212  3213    1
  1483  2776  2727    1
  1484  2783  2784    1
  1485  1006  1087    1
  1486  1006  1085    1
  1487  1006  1075    1
  1488   577   658    1
  1489   577   656    1
  1490   577   646    1
  1491  2293  2374    1
  1492  2293  2372    1
  1493  2293  2362    1
  1494   148   229    1
  1495   148   227    1
  1496   148   217    1
  1497  1003  1080    1
  1498  1003  1082    1
  1499  1003  1078    1
  1500  1864  1945    1
  1501  1864  1943    1
  1502  1864  1933    1
  1503  3580  3661    1
  1504  3580  3659    1
  1505  3580  3649    1
  1506   574   651    1
  1507   574   653    1
  1508   574   649    1
  1509  1435  1516    1
  1510  1435  1514    1
  1511  1435  1504    1
  1512  2290  2367    1
  1513  2290  2369    1
  1514  2290  2365    1
  1515  3151  3232    1
  1516  3151  3230    1
  1517  3151  3220    1
  1518   145   222    1
  1519   145   224    1
  1520   145   220    1
  1521  1861  1938    1
  1522  1861  1940    1
  1523  1861  1936    1
  1524  2722  2803    1
  1525  2722  2801    1
  1526  2722  2791    1
  1527  3577  3654    1
  1528  3577  3656    1
  1529  3577  3652    1
  1530  1432  1509    1
  1531  1432  1511    1
  1532  1432  1507    1
  1533  3148  3225    1
  1534  3148  3227    1
  1535  3148  3223    1
  1536  2719  2796    1
  1537  2719  2798    1
  1538  2719  2794    1
  1539  1026  1096    1
  1540   597   667    1
  1541  1087  1005    1
  1542  2313  2383    1
  1543   168   238    1
  1544   658   576    1
  1545  1884  1954    1
  1546  2374  2292    1
  1547  3600  3670    1
  1548   229   147    1
  1549  1455  1525    1
  1550  1080  1009    1
  1551  1945  1863    1
  1552  3171  3241    1
  1553  1068  1024    1
  1554  3661  3579    1
  1555   651   580    1
  1556  1516  1434    1
  1557  2742  2812    1
  1558   639   595    1
  1559   639  1025    1
  1560  2367  2296    1
  1561  3232  3150    1
  1562  2355  2311    1
  1563   222   151    1
  1564   210   166    1
  1565   210   596    1
  1566  1938  1867    1
  1567  2803  2721    1
  1568  1926  1882    1
  1569  1926  2312    1
  1570  3654  3583    1
  1571  3642  3598    1
  1572  1509  1438    1
  1573  1497  1453    1
  1574  1497  1883    1
  1575  3225  3154    1
  1576  3213  3169    1
  1577  3213  3599    1
  1578  2796  2725    1
  1579  2784  2740    1
  1580  2784  3170    1
  1581  1085  1005    1
  1582   656   576    1
  1583  1082  1009    1
  1584  2372  2292    1
  1585   227   147    1
  1586  1096  1009    1
  1587   653   580    1
  1588  1943  1863    1
  1589  2369  2296    1
  1590   667   580    1
  1591  3659  3579    1
  1592   224   151    1
  1593  1514  1434    1
  1594  2383  2296    1
  1595  1940  1867    1
  1596   238   151    1
  1597  3230  3150    1
  1598  3656  3583    1
  1599  1954  1867    1
  1600  1511  1438    1
  1601  2801  2721    1
  1602  3670  3583    1
  1603  3227  3154    1
  1604  1525  1438    1
  1605  3241  3154    1
  1606  2798  2725    1
  1607  2812  2725    1
  1608  1075  1037    1
  1609   646   608    1
  1610  2362  2324    1
  1611   217   179    1
  1612  1078  1034    1
  1613  1933  1895    1
  1614   649   605    1
  1615  3649  3611    1
  1616  1504  1466    1
  1617  2365  2321    1
  1618   220   176    1
  1619  3220  3182    1
  1620  1005  1076    1
  1621  1005  1125    1
  1622  1936  1892    1
  1623  2791  2753    1
  1624   576   647    1
  1625   576   696    1
  1626  3652  3608    1
  1627  1009  1072    1
  1628  1009  1122    1
  1629  1507  1463    1
  1630  2292  2363    1
  1631  2292  2412    1
  1632   147   218    1
  1633   147   267    1
  1634  3223  3179    1
  1635   580   643    1
  1636   580   693    1
  1637  1863  1934    1
  1638  1863  1983    1
  1639  2296  2359    1
  1640  2296  2409    1
  1641  2794  2750    1
  1642  3579  3650    1
  1643  3579  3699    1
  1644   151   214    1
  1645   151   264    1
  1646  1434  1505    1
  1647  1434  1554    1
  1648  1867  1930    1
  1649  1867  1980    1
  1650  3150  3221    1
  1651  3150  3270    1
  1652  3583  3646    1
  1653  3583  3696    1
  1654  1438  1501    1
  1655  1438  1551    1
  1656  2721  2792    1
  1657  2721  2841    1
  1658  3154  3217    1
  1659  3154  3267    1
  1660  2725  2788    1
  1661  2725  2838    1
  1662  1023  1045    1
  1663   594   616    1
  1664  1108  1112    1
  1665  1021  1048    1
  1666  2310  2332    1
  1667   165   187    1
  1668   679   683    1
  1669   592   619    1
  1670  1881  1903    1
  1671  2395  2399    1
  1672  2308  2335    1
  1673  3597  3619    1
  1674   250   254    1
  1675   163   190    1
  1676  1452  1474    1
  1677  1966  1970    1
  1678  1879  1906    1
  1679  3168  3190    1
  1680  3682  3686    1
  1681  3595  3622    1
  1682  1537  1541    1
  1683  1450  1477    1
  1684  2739  2761    1
  1685  3253  3257    1
  1686  3166  3193    1
  1687  2824  2828    1
  1688  2737  2764    1
  1689  1037  1076    1
  1690  1037  1041    1
  1691   608   647    1
  1692   608   612    1
  1693  2324  2363    1
  1694  2324  2328    1
  1695   179   218    1
  1696   179   183    1
  1697  1034  1072    1
  1698  1034  1038    1
  1699  1895  1934    1
  1700  1895  1899    1
  1701  3611  3650    1
  1702  3611  3615    1
  1703   605   643    1
  1704   605   609    1
  1705  1466  1505    1
  1706  1466  1470    1
  1707  2321  2359    1
  1708  2321  2325    1
  1709  3182  3221    1
  1710  3182  3186    1
  1711  2396  1118    1
  1712   176   214    1
  1713   176   180    1
  1714  1112  1118    1
  1715  1112  1116    2
  1716  1892  1930    1
  1717  1892  1896    1
  1718  2753  2792    1
  1719  2753  2757    1
  1720  1967   689    1
  1721   683   689   ar
  1722   683   687   ar
  1723  3608  3646    1
  1724  3608  3612    2
  1725  3683  2405    1
  1726  1463  1501    1
  1727  1463  1467    1
  1728  2399  2405    1
  1729  2399  2403    2
  1730  1538   260    1
  1731   254   260   ar
  1732   254   258   ar
  1733  3179  3217    1
  1734  3179  3183    2
  1735  3254  1976    1
  1736  1970  1976   ar
  1737  1970  1974   ar
  1738  2750  2788    1
  1739  2750  2754    2
  1740  3686  3692    1
  1741  3686  3690    2
  1742  2825  1547    1
  1743  1102  1116    1
  1744  1541  1547   ar
  1745  1541  1545   ar
  1746  3257  3263    1
  1747  3257  3261    2
  1748  1125  1054    1
  1749   673   687    1
  1750  2389  2403    1
  1751  2828  2834    1
  1752  2828  2832    2
  1753  1045  1041    1
  1754   696   625    1
  1755   244   258    1
  1756  2412  2341    1
  1757  1960  1974    1
  1758   616   612   ar
  1759   616  1047   ar
  1760   267   196    1
  1761  3676  3690    1
  1762  2332  2328    1
  1763  1983  1912    1
  1764  1122  1054    1
  1765  1531  1545    1
  1766  1048  1038   ar
  1767  1048  2330   ar
  1768   187   183   ar
  1769   187   618   ar
  1770  3699  3628    1
  1771  3247  3261    1
  1772   689  2404   ar
  1773  1903  1899   ar
  1774  1903  2334   ar
  1775  1554  1483    1
  1776   693   625    1
  1777   619   609   ar
  1778   619  1901   ar
  1779  3619  3615    1
  1780  3270  3199    1
  1781  2409  2341    1
  1782  2818  2832    1
  1783  2335  2325   ar
  1784  2335  3617   ar
  1785   260  1975   ar
  1786  1474  1470   ar
  1787  1474  1905   ar
  1788   264   196    1
  1789   190   180   ar
  1790   190  1472   ar
  1791  1976  3691   ar
  1792  3190  3186   ar
  1793  3190  3621   ar
  1794  2841  2770    1
  1795  1980  1912    1
  1796  1906  1896   ar
  1797  1906  3188   ar
  1798   687  2406   ar
  1799  3696  3628    1
  1800  3622  3612    1
  1801  1547  3262   ar
  1802  2761  2757   ar
  1803  2761  3192   ar
  1804  1551  1483    1
  1805  1477  1467   ar
  1806  1477  2759   ar
  1807   258  1977   ar
  1808  3267  3199    1
  1809  3193  3183    1
  1810  1974  3693   ar
  1811  2838  2770    1
  1812  2764  2754    1
  1813  1545  3264   ar
  1814  1041  1046    2
  1815  1054  1110    1
  1816  1022  1043    1
  1817   612   617   ar
  1818   625   681    1
  1819  2328  2333    2
  1820  2341  2397    1
  1821   593   614    1
  1822   183   188   ar
  1823   196   252    1
  1824  1038  1042   ar
  1825  2309  2330    1
  1826  1899  1904   ar
  1827  1912  1968    1
  1828   164   185    1
  1829  3615  3620    2
  1830   609   613   ar
  1831  3628  3684    1
  1832  1880  1901    1
  1833  1470  1475   ar
  1834  1483  1539    1
  1835  2325  2329   ar
  1836  3596  3617    1
  1837  3186  3191   ar
  1838   180   184   ar
  1839  3199  3255    1
  1840  1451  1472    1
  1841  1018  1047    1
  1842  1896  1900   ar
  1843  3167  3188    1
  1844  2757  2762   ar
  1845  2770  2826    1
  1846  3612  3616    1
  1847   589   618    1
  1848  1467  1471   ar
  1849  2738  2759    1
  1850  2305  2334    1
  1851  3183  3187    1
  1852   160   189    1
  1853  1876  1905    1
  1854  2754  2758    1
  1855  1043  1039    1
  1856  3592  3621    1
  1857  1447  1476    1
  1858  1117  1101    1
  1859  1117  1113    1
  1860   614   610    1
  1861  3163  3192    1
  1862  2330  2326   ar
  1863   688   672    1
  1864   688   684    1
  1865   185   181    1
  1866  2734  2763    1
  1867  1047  1040   ar
  1868  2404  2388    1
  1869  2404  2400   ar
  1870  1901  1897   ar
  1871  1119  1113    1
  1872  1119  1105    1
  1873   259   243    1
  1874   259   255    1
  1875  3617  3613   ar
  1876   618   611   ar
  1877  1975  1959    1
  1878  1975  1971   ar
  1879  1472  1468   ar
  1880   690   684    1
  1881   690   676    1
  1882  2334  2327   ar
  1883  3691  3675    1
  1884  3691  3687   ar
  1885  3188  3184   ar
  1886   189   182    1
  1887  2406  2400   ar
  1888  2406  2392    1
  1889  1546  1530    1
  1890  1546  1542    1
  1891   261   255    1
  1892   261   247    1
  1893  1905  1898   ar
  1894  3262  3246    1
  1895  3262  3258   ar
  1896  2759  2755   ar
  1897  1977  1971   ar
  1898  1977  1963    1
  1899  3621  3614   ar
  1900  1476  1469    1
  1901  3693  3687   ar
  1902  3693  3679    1
  1903  2833  2817    1
  1904  2833  2829    1
  1905  1548  1542    1
  1906  1548  1534    1
  1907  3192  3185   ar
  1908  3264  3258   ar
  1909  3264  3250    1
  1910  2763  2756    1
  1911  2835  2829    1
  1912  2835  2821    1
  1913  1113  1055    2
  1914   684   626    2
  1915  1110  1114   ar
  1916  1110  1120   ar
  1917  1107  1114    1
  1918  2400  2342    1
  1919   255   197    2
  1920   681   685   ar
  1921   681   691   ar
  1922   678   685    1
  1923  1971  1913    1
  1924  2397  2401   ar
  1925  2397  2407   ar
  1926  2394  2401    1
  1927   252   256   ar
  1928   252   262   ar
  1929  3687  3629    1
  1930   249   256    1
  1931  1542  1484    2
  1932  1968  1972   ar
  1933  1968  1978   ar
  1934  1965  1972    1
  1935  3258  3200    1
  1936  3684  3688   ar
  1937  3684  3694   ar
  1938  3681  3688    1
  1939  1103  1120    1
  1940  1539  1543   ar
  1941  1539  1549   ar
  1942  1536  1543    1
  1943  2829  2771    2
  1944  3255  3259   ar
  1945  3255  3265   ar
  1946  3252  3259    1
  1947   674   691    1
  1948  2390  2407    1
  1949  2826  2830   ar
  1950  2826  2836   ar
  1951  2823  2830    1
  1952   245   262    1
  1953  1046  1019    1
  1954  1961  1978    1
  1955  3677  3694    1
  1956   617   590    1
  1957   617  1044   ar
  1958  1532  1549    1
  1959  1031  1070    1
  1960  2333  2306    1
  1961  3248  3265    1
  1962  1114  1121   ar
  1963   188   161    1
  1964   188   615   ar
  1965   602   641    1
  1966  1904  1877    1
  1967  1904  2331   ar
  1968  2819  2836    1
  1969   685   692   ar
  1970  2318  2357    1
  1971  3620  3593    1
  1972  1042  1070    1
  1973  1042  2336   ar
  1974  2401  2408   ar
  1975   173   212    1
  1976  1475  1448    1
  1977  1475  1902   ar
  1978  1120  1115   ar
  1979   256   263   ar
  1980  1889  1928    1
  1981  3191  3164    1
  1982  3191  3618   ar
  1983   613   641    1
  1984   613  1907   ar
  1985  1972  1979   ar
  1986  3605  3644    1
  1987   691   686   ar
  1988  2329  2357    1
  1989  2329  3623   ar
  1990  3688  3695   ar
  1991  1460  1499    1
  1992  2762  2735    1
  1993  2762  3189   ar
  1994   184   212    1
  1995   184  1478   ar
  1996  2407  2402   ar
  1997  1543  1550   ar
  1998  3176  3215    1
  1999   262   257   ar
  2000  1900  1928    1
  2001  1900  3194   ar
  2002  3259  3266   ar
  2003  1978  1973   ar
  2004  3616  3644    1
  2005  2747  2786    1
  2006  1471  1499    1
  2007  1471  2765   ar
  2008  3694  3689   ar
  2009  2830  2837   ar
  2010  1549  1544   ar
  2011  3187  3215    1
  2012  3265  3260   ar
  2013  1039  1049    2
  2014  1039  1035    1
  2015  2758  2786    1
  2016  2836  2831   ar
  2017   610   620    2
  2018   610   606    1
  2019  2326  2336   ar
  2020  2326  2322    1
  2021   181   191    2
  2022   181   177    1
  2023  1055  1123    1
  2024  1055  1124    1
  2025  1040  1044   ar
  2026  1040  1036    1
  2027  1897  1907   ar
  2028  1897  1893    1
  2029   626   694    1
  2030   626   695    1
  2031  3613  3623   ar
  2032  3613  3609    1
  2033   611   615   ar
  2034   611   607    1
  2035  1468  1478   ar
  2036  1468  1464    1
  2037  2342  2410    1
  2038  2342  2411    1
  2039  2327  2331   ar
  2040  2327  2323    1
  2041   197   265    1
  2042   197   266    1
  2043  3184  3194   ar
  2044  3184  3180    1
  2045   182   186    2
  2046   182   178    1
  2047  1070  1030    1
  2048  1913  1981    1
  2049  1913  1982    1
  2050  1898  1902   ar
  2051  1898  1894    1
  2052  2755  2765   ar
  2053  2755  2751    1
  2054  3629  3697    1
  2055  3629  3698    1
  2056  3614  3618   ar
  2057  3614  3610    1
  2058   641   601    1
  2059  1484  1552    1
  2060  1484  1553    1
  2061  1469  1473    2
  2062  1469  1465    1
  2063  2357  2317    1
  2064  3200  3268    1
  2065  3200  3269    1
  2066  3185  3189   ar
  2067  3185  3181    1
  2068   212   172    1
  2069  1928  1888    1
  2070  2771  2839    1
  2071  2771  2840    1
  2072  2756  2760    2
  2073  2756  2752    1
  2074  3644  3604    1
  2075  1499  1459    1
  2076  1123  1008    1
  2077  3215  3175    1
  2078  1049  1020    1
  2079   694   579    1
  2080  1124  1004    1
  2081  2786  2746    1
  2082   620   591    1
  2083  2410  2295    1
  2084  1073  1035    1
  2085  1073  1008    1
  2086  1044  1071    1
  2087  2336  2307    1
  2088   265   150    1
  2089   695   575    1
  2090  1121  1104    1
  2091  1121  1111   ar
  2092   191   162    1
  2093  1981  1866    1
  2094  2411  2291    1
  2095   644   606    1
  2096   644   579    1
  2097   615   642    1
  2098  1907  1878    1
  2099   266   146    1
  2100   692   675    1
  2101   692   682   ar
  2102  3697  3582    1
  2103  2360  2322    1
  2104  2360  2295    1
  2105  1077  1036    1
  2106  1077  1004    1
  2107  2331  2358    1
  2108  3623  3594    1
  2109  1552  1437    1
  2110  1982  1862    1
  2111   215   177    1
  2112   215   150    1
  2113  2408  2391    1
  2114  2408  2398   ar
  2115   186   213    1
  2116  1478  1449    1
  2117  1115  1100    1
  2118  1115  1111   ar
  2119   263   246    1
  2120   263   253   ar
  2121  3268  3153    1
  2122  3698  3578    1
  2123  1931  1893    1
  2124  1931  1866    1
  2125   648   607    1
  2126   648   575    1
  2127  1902  1929    1
  2128  3194  3165    1
  2129  1553  1433    1
  2130  1979  1962    1
  2131  1979  1969   ar
  2132  3647  3609    1
  2133  3647  3582    1
  2134  2364  2323    1
  2135  2364  2291    1
  2136   686   671    1
  2137   686   682   ar
  2138  3618  3645    1
  2139  2839  2724    1
  2140  3269  3149    1
  2141  1502  1464    1
  2142  1502  1437    1
  2143  3695  3678    1
  2144  3695  3685   ar
  2145   219   178    1
  2146   219   146    1
  2147  1473  1500    1
  2148  2765  2736    1
  2149  2402  2387    1
  2150  2402  2398   ar
  2151  1550  1533    1
  2152  1550  1540   ar
  2153  3218  3180    1
  2154  3218  3153    1
  2155  1935  1894    1
  2156  1935  1862    1
  2157   257   242    1
  2158   257   253   ar
  2159  3189  3216    1
  2160  2840  2720    1
  2161  3266  3249    1
  2162  3266  3256   ar
  2163  3651  3610    1
  2164  3651  3578    1
  2165  1973  1958    1
  2166  1973  1969   ar
  2167  2789  2751    1
  2168  2789  2724    1
  2169  1506  1465    1
  2170  1506  1433    1
  2171  2760  2787    1
  2172  3689  3674    1
  2173  3689  3685   ar
  2174  2837  2820    1
  2175  2837  2827   ar
  2176  3222  3181    1
  2177  3222  3149    1
  2178  1544  1529    1
  2179  1544  1540   ar
  2180  3260  3245    1
  2181  3260  3256   ar
  2182  2793  2752    1
  2183  2793  2720    1
  2184  1035  1079    1
  2185  2831  2816    1
  2186  2831  2827   ar
  2187   606   650    1
  2188  2322  2366    1
  2189  1036  1074    1
  2190   177   221    1
  2191  1893  1937    1
  2192  1111  1106    1
  2193   607   645    1
  2194  3609  3653    1
  2195  2323  2361    1
  2196  1464  1508    1
  2197   682   677    1
  2198   178   216    1
  2199  3180  3224    1
  2200  2398  2393    1
  2201  1894  1932    1
  2202   253   248    1
  2203  3610  3648    1
  2204  2751  2795    1
  2205  1969  1964    1
  2206  1465  1503    1
  2207  3685  3680    1
  2208  3181  3219    1
  2209  1540  1535    1
  2210  3256  3251    1
  2211  2752  2790    1
  2212  2827  2822    1
  2213  1071  1032    1
  2214  1071  1033    1
  2215  1008  1097    1
  2216  1008  1081    1
  2217  1008  1083    1
  2218   642   603    1
  2219   642   604    1
  2220   579   668    1
  2221   579   652    1
  2222   579   654    1
  2223  2358  2319    1
  2224  2358  2320    1
  2225  1004  1086    1
  2226  1004  1084    1
  2227   213   174    1
  2228   213   175    1
  2229  2295  2384    1
  2230  2295  2368    1
  2231  2295  2370    1
  2232   150   239    1
  2233   150   223    1
  2234   150   225    1
  2235  1929  1890    1
  2236  1929  1891    1
  2237   575   657    1
  2238   575   655    1
  2239  1866  1955    1
  2240  1866  1939    1
  2241  1866  1941    1
  2242  3645  3606    1
  2243  3645  3607    1
  2244  2291  2373    1
  2245  2291  2371    1
  2246  1500  1461    1
  2247  1500  1462    1
  2248  3582  3671    1
  2249  3582  3655    1
  2250  3582  3657    1
  2251   146   228    1
  2252   146   226    1
  2253  1437  1526    1
  2254  1437  1510    1
  2255  1437  1512    1
  2256  3216  3177    1
  2257  3216  3178    1
  2258  1862  1944    1
  2259  1862  1942    1
  2260  3153  3242    1
  2261  3153  3226    1
  2262  3153  3228    1
  2263  1079  1002    1
  2264  3578  3660    1
  2265  3578  3658    1
  2266  2787  2748    1
  2267  2787  2749    1
  2268  1433  1515    1
  2269  1433  1513    1
  2270  2724  2813    1
  2271  2724  2797    1
  2272  2724  2799    1
  2273   650   573    1
  2274  3149  3231    1
  2275  3149  3229    1
  2276  2366  2289    1
  2277   221   144    1
  2278  2720  2802    1
  2279  2720  2800    1
  2280  1074  1007    1
  2281  1937  1860    1
  2282  1028  1069    1
  2283  3653  3576    1
  2284   645   578    1
  2285  1508  1431    1
  2286  2361  2294    1
  2287   599   640    1
  2288  3224  3147    1
  2289   216   149    1
  2290  2315  2356    1
  2291  1932  1865    1
  2292   170   211    1
  2293  2795  2718    1
  2294  3648  3581    1
  2295  1886  1927    1
  2296  1503  1436    1
  2297  3602  3643    1
  2298  3219  3152    1
  2299  1457  1498    1
  2300  3173  3214    1
  2301  2790  2723    1
  2302  1097  1027    1
  2303  2744  2785    1
  2304   668   598    1
  2305  1081  1002    1
  2306  2384  2314    1
  2307   239   169    1
  2308   652   573    1
  2309  1955  1885    1
  2310  2368  2289    1
  2311  3671  3601    1
  2312   223   144    1
  2313  1526  1456    1
  2314  1086  1007    1
  2315  1939  1860    1
  2316  3242  3172    1
  2317  3655  3576    1
  2318   657   578    1
  2319  1510  1431    1
  2320  2813  2743    1
  2321  2373  2294    1
  2322  3226  3147    1
  2323   228   149    1
  2324  1944  1865    1
  2325  2797  2718    1
  2326  3660  3581    1
  2327  1515  1436    1
  2328  3231  3152    1
  2329  2802  2723    1
  2330  1029  1069    1
  2331  1069  1064    1
  2332   600   640    1
  2333  1083  1002    1
  2334  2316  2356    1
  2335   640   635    1
  2336   171   211    1
  2337  2356  2351    1
  2338   654   573    1
  2339  1887  1927    1
  2340   211   206    1
  2341  2370  2289    1
  2342  1084  1007    1
  2343  3603  3643    1
  2344  1927  1922    1
  2345   225   144    1
  2346  1458  1498    1
  2347  3643  3638    1
  2348  1941  1860    1
  2349   655   578    1
  2350  3174  3214    1
  2351  1498  1493    1
  2352  3657  3576    1
  2353  2371  2294    1
  2354  3214  3209    1
  2355  1512  1431    1
  2356   226   149    1
  2357  2745  2785    1
  2358  3228  3147    1
  2359  1942  1865    1
  2360  2785  2780    1
  2361  1012  1063    1
  2362  3658  3581    1
  2363  2799  2718    1
  2364  1513  1436    1
  2365   583   634    1
  2366  3229  3152    1
  2367  2299  2350    1
  2368   154   205    1
  2369  2800  2723    1
  2370  1014  1066    1
  2371  1870  1921    1
  2372  1010  1061    1
  2373  3586  3637    1
  2374   585   637    1
  2375  1441  1492    1
  2376  2301  2353    1
  2377   581   632    1
  2378  3157  3208    1
  2379   156   208    1
  2380  2297  2348    1
  2381  1872  1924    1
  2382   152   203    1
  2383  2728  2779    1
  2384  3588  3640    1
  2385  1868  1919    1
  2386  1443  1495    1
  2387  3584  3635    1
  2388  3159  3211    1
  2389  1439  1490    1
  2390  1002  1093    1
  2391  1002  1095    1
  2392  3155  3206    1
  2393  2730  2782    1
  2394   573   664    1
  2395   573   666    1
  2396  2726  2777    1
  2397  2289  2380    1
  2398  2289  2382    1
  2399   144   235    1
  2400   144   237    1
  2401  1007  1090    1
  2402  1007  1088    1
  2403  1007  1241    1
  2404  1860  1951    1
  2405  1860  1953    1
  2406  3576  3667    1
  2407  3576  3669    1
  2408   578   661    1
  2409   578   659    1
  2410   578   812    1
  2411  1431  1522    1
  2412  1431  1524    1
  2413  2294  2377    1
  2414  2294  2375    1
  2415  2294  2528    1
  2416  3147  3238    1
  2417  3147  3240    1
  2418   149   232    1
  2419   149   230    1
  2420   149   383    1
  2421  1865  1948    1
  2422  1865  1946    1
  2423  1865  2099    1
  2424  2718  2809    1
  2425  2718  2811    1
  2426  3581  3664    1
  2427  3581  3662    1
  2428  3581  3815    1
  2429  1436  1519    1
  2430  1436  1517    1
  2431  1436  1670    1
  2432  3152  3235    1
  2433  3152  3233    1
  2434  3152  3386    1
  2435  2723  2806    1
  2436  2723  2804    1
  2437  2723  2957    1
  2438  1063  1196    1
  2439  1064  2350   ar
  2440  1064  1195   ar
  2441   634   767    1
  2442   635  1921   ar
  2443   635   766   ar
  2444  2350  2483   ar
  2445  2351  3637   ar
  2446  2351  2482   ar
  2447   205   338    1
  2448   206  1492   ar
  2449   206   337   ar
  2450  1093  1202    1
  2451  1921  2054   ar
  2452  1922  3208   ar
  2453  1922  2053   ar
  2454  1061  1194    1
  2455  1066   632   ar
  2456  1066  1193   ar
  2457  3637  3770   ar
  2458   664   773    1
  2459  3638  3769    1
  2460  1492  1625   ar
  2461  1090  1201    1
  2462  1088  1199    1
  2463  1095  1200    1
  2464  1493  2779   ar
  2465  1493  1624   ar
  2466   632   765   ar
  2467   637   203   ar
  2468   637   764   ar
  2469  2380  2489    1
  2470  3208  3341   ar
  2471   235   344    1
  2472  3209  3340    1
  2473  2348  2481    1
  2474  2353  1919   ar
  2475  2353  2480   ar
  2476   661   772    1
  2477   659   770    1
  2478   666   771    1
  2479   203   336   ar
  2480   208   335    1
  2481  1951  2060    1
  2482  2779  2912   ar
  2483  2377  2488    1
  2484  2375  2486    1
  2485  2382  2487    1
  2486  2780  2911    1
  2487  1919  2052   ar
  2488  1924  1490   ar
  2489  1924  2051   ar
  2490  3667  3776    1
  2491   232   343    1
  2492   230   341    1
  2493   237   342    1
  2494  1522  1631    1
  2495  3635  3768    1
  2496  3640  3206   ar
  2497  3640  3767   ar
  2498  1948  2059    1
  2499   994   988    1
  2500  1946  2057    1
  2501  1953  2058    1
  2502  1490  1623   ar
  2503  1495  1622    1
  2504  3238  3347    1
  2505  3664  3775    1
  2506  3662  3773    1
  2507  3669  3774    1
  2508  3206  3339   ar
  2509  3211  2777   ar
  2510  3211  3338   ar
  2511  1519  1630    1
  2512   565   559    1
  2513  1517  1628    1
  2514  1524  1629    1
  2515  2809  2918    1
  2516  3235  3346    1
  2517  2281  2275    1
  2518  3233  3344    1
  2519  3240  3345    1
  2520  2777  2910   ar
  2521  2782  2909    1
  2522   136   130    1
  2523  2806  2917    1
  2524  1852  1846    1
  2525  2804  2915    1
  2526  2811  2916    1
  2527  3568  3562    1
  2528  1423  1417    1
  2529  3139  3133    1
  2530  2710  2704    1
  2531  1159  1242    1
  2532  1196  1202    2
  2533  1196  1208    1
  2534  1195  1201    1
  2535  1195  1205   ar
  2536   730   813    1
  2537  1242  1149    1
  2538  1202  1234    1
  2539  2446  2529    1
  2540   767   773    2
  2541   767   779    1
  2542  1201  1235    1
  2543   766   772    1
  2544   766   776   ar
  2545   301   384    1
  2546   999   988    1
  2547   813   720    1
  2548   773   805    1
  2549  2483  2489    1
  2550  2483  2495   ar
  2551  2482  2488    1
  2552  2482  2492   ar
  2553  2017  2100    1
  2554  2529  2436    1
  2555   338   344    2
  2556   338   350    1
  2557  2489  2521    1
  2558  1199  1193    1
  2559  1199  1237    1
  2560   772   806    1
  2561   988   996    1
  2562   988   983    1
  2563   337   343    1
  2564   337   347   ar
  2565  1200  1194    2
  2566  1200  1232    1
  2567   570   559    1
  2568   384   291    1
  2569   344   376    1
  2570  3733  3816    1
  2571  1193  1203   ar
  2572  2054  2060    1
  2573  2054  2066   ar
  2574  2488  2522    1
  2575  2053  2059    1
  2576  2053  2063   ar
  2577  1588  1671    1
  2578  2286  2275    1
  2579  2100  2007    1
  2580  1194  1210    1
  2581  2060  2092    1
  2582   770   764    1
  2583   770   808    1
  2584  3770  3776    1
  2585  3770  3782   ar
  2586   343   377    1
  2587   559   567    1
  2588   559   554    1
  2589   771   765    1
  2590   771   803    1
  2591  1241  1160    1
  2592   141   130    1
  2593  3769  3775    2
  2594  3769  3779    1
  2595  3304  3387    1
  2596   764   774   ar
  2597  3816  3723    1
  2598  1625  1631    1
  2599  1625  1637   ar
  2600  3776  3808    1
  2601  2486  2480    1
  2602  2486  2524    1
  2603  2059  2093    1
  2604  2275  2283    1
  2605  2275  2270    1
  2606  1624  1630    1
  2607  1624  1634   ar
  2608  2487  2481    2
  2609  2487  2519    1
  2610  1857  1846    1
  2611  1671  1578    1
  2612   765   781   ar
  2613  1631  1663    1
  2614  2480  2490   ar
  2615   341   335    2
  2616   341   379    1
  2617  3341  3347    1
  2618  3341  3353   ar
  2619   130   138    1
  2620   130   125    1
  2621  3775  3809    1
  2622   342   336    1
  2623   342   374    1
  2624   812   731    1
  2625  3340  3346    2
  2626  3340  3350    1
  2627  2875  2958    1
  2628   335   345    1
  2629  3573  3562    1
  2630  3387  3294    1
  2631  2481  2497    1
  2632  3347  3379    1
  2633  2057  2051    1
  2634  2057  2095    1
  2635  1630  1664    1
  2636  1846  1854    1
  2637  1846  1841    1
  2638  2058  2052    1
  2639  2058  2090    1
  2640  2528  2447    1
  2641  1428  1417    1
  2642   336   352   ar
  2643  2051  2061   ar
  2644  2912  2918    1
  2645  2912  2924   ar
  2646  3773  3767    1
  2647  3773  3811    1
  2648  3346  3380    1
  2649   383   302    1
  2650  3562  3570    1
  2651  3562  3557    1
  2652  2911  2917    2
  2653  2911  2921    1
  2654  3774  3768    2
  2655  3774  3806    1
  2656  3144  3133    1
  2657  2958  2865    1
  2658  2052  2068   ar
  2659  2918  2950    1
  2660  3767  3777   ar
  2661  1628  1622    2
  2662  1628  1666    1
  2663  1417  1425    1
  2664  1417  1412    1
  2665  1629  1623    1
  2666  1629  1661    1
  2667  2099  2018    1
  2668  1622  1632    1
  2669  3768  3784    1
  2670  3344  3338    1
  2671  3344  3382    1
  2672  2917  2951    1
  2673  3133  3141    1
  2674  3133  3128    1
  2675  3345  3339    1
  2676  3345  3377    1
  2677  3815  3734    1
  2678  2715  2704    1
  2679  1623  1639   ar
  2680  3338  3348   ar
  2681  1670  1589    1
  2682  3339  3355   ar
  2683  2915  2909    2
  2684  2915  2953    1
  2685  2704  2712    1
  2686  2704  2699    1
  2687  2916  2910    1
  2688  2916  2948    1
  2689  3386  3305    1
  2690  2909  2919    1
  2691  2910  2926   ar
  2692  2957  2876    1
  2693   995   987    1
  2694   566   558    1
  2695   983   989    1
  2696   983   985    1
  2697  2282  2274    1
  2698   137   129    1
  2699   554   560    1
  2700   554   556    1
  2701  1853  1845    1
  2702  2270  2276    1
  2703  2270  2272    1
  2704  3569  3561    1
  2705   125   131    1
  2706   125   127    1
  2707  1424  1416    1
  2708  1841  1847    1
  2709  1841  1843    1
  2710  3140  3132    1
  2711  1234  1149    1
  2712  3557  3563    1
  2713  3557  3559    1
  2714  1208  1158    1
  2715  1235  1146    1
  2716  1412  1418    1
  2717  1412  1414    1
  2718  2711  2703    1
  2719   805   720    1
  2720  1232  1149    1
  2721  1237  1146    1
  2722  3128  3134    1
  2723  3128  3130    1
  2724  1000   989    1
  2725  1205  2495   ar
  2726  1205  1156    1
  2727  2521  2436    1
  2728   779   729    1
  2729   806   717    1
  2730   376   291    1
  2731   803   720    1
  2732   808   717    1
  2733  2495  2445    1
  2734  2522  2433    1
  2735  2699  2705    1
  2736  2699  2701    1
  2737   571   560    1
  2738   776  2066   ar
  2739   776   727    1
  2740   991   985    1
  2741  2092  2007    1
  2742  2519  2436    1
  2743   350   300    1
  2744   377   288    1
  2745  2524  2433    1
  2746  2287  2276    1
  2747   374   291    1
  2748  2492  3782   ar
  2749  2492  2443    1
  2750  3808  3723    1
  2751   379   288    1
  2752  2066  2016    1
  2753  2093  2004    1
  2754   142   131    1
  2755   347  1637   ar
  2756   347   298    1
  2757   562   556    1
  2758  1663  1578    1
  2759  2090  2007    1
  2760  1203   781   ar
  2761  1203  1154    1
  2762  2095  2004    1
  2763  3782  3732    1
  2764  3809  3720    1
  2765  1858  1847    1
  2766  2063  3353   ar
  2767  2063  2014    1
  2768  1210  1211    1
  2769  2278  2272    1
  2770  3379  3294    1
  2771  3806  3723    1
  2772  1637  1587    1
  2773  1664  1575    1
  2774  3811  3720    1
  2775   133   127    1
  2776  3574  3563    1
  2777  1661  1578    1
  2778   774   352   ar
  2779   774   725    1
  2780  3779  3730    1
  2781   989   984    1
  2782  1666  1575    1
  2783  3353  3303    1
  2784  3380  3291    1
  2785  1429  1418    1
  2786  1634  2924   ar
  2787  1634  1585    1
  2788   781   782    1
  2789  1849  1843    1
  2790  2950  2865    1
  2791  3377  3294    1
  2792  2490  2068   ar
  2793  2490  2441    1
  2794  3382  3291    1
  2795  3145  3134    1
  2796   345   296    1
  2797  3350  3301    1
  2798  2497  2498    1
  2799  3565  3559    1
  2800   560   555    1
  2801   985   986    2
  2802  2924  2874    1
  2803  2951  2862    1
  2804   352   353    1
  2805  1420  1414    1
  2806  2948  2865    1
  2807  2061  1639   ar
  2808  2061  2012    1
  2809  2276  2271    1
  2810  2953  2862    1
  2811  2716  2705    1
  2812  2921  2872    1
  2813  2068  2069    1
  2814  3136  3130    1
  2815   131   126    1
  2816  3777  3355   ar
  2817  3777  3728    1
  2818   556   557    2
  2819   993   987    1
  2820  1632  1583    1
  2821  3784  3785    1
  2822  1847  1842    1
  2823  2272  2273    2
  2824  1639  1640    1
  2825  2707  2701    1
  2826  3348  2926   ar
  2827  3348  3299    1
  2828   127   128    2
  2829  3563  3558    1
  2830   564   558    1
  2831  3355  3356    1
  2832  1418  1413    1
  2833  1843  1844    2
  2834  2280  2274    1
  2835  2919  2870    1
  2836  3134  3129    1
  2837  3559  3560    2
  2838   135   129    1
  2839  2926  2927    1
  2840  1414  1415    2
  2841  1851  1845    1
  2842  2705  2700    1
  2843  3130  3131    2
  2844  3567  3561    1
  2845  1422  1416    1
  2846  2701  2702    2
  2847  3138  3132    1
  2848  1149  1230    1
  2849  1149  1228    1
  2850  1149  1218    1
  2851   987   997    1
  2852   987   990    1
  2853  2709  2703    1
  2854   720   801    1
  2855   720   799    1
  2856   720   789    1
  2857   558   568    1
  2858   558   561    1
  2859  2436  2517    1
  2860  2436  2515    1
  2861  2436  2505    1
  2862  2274  2284    1
  2863  2274  2277    1
  2864   291   372    1
  2865   291   370    1
  2866   291   360    1
  2867   129   139    1
  2868   129   132    1
  2869  1146  1223    1
  2870  1146  1225    1
  2871  1146  1221    1
  2872  2007  2088    1
  2873  2007  2086    1
  2874  2007  2076    1
  2875  1845  1855    1
  2876  1845  1848    1
  2877  3723  3804    1
  2878  3723  3802    1
  2879  3723  3792    1
  2880  3561  3571    1
  2881  3561  3564    1
  2882   717   794    1
  2883   717   796    1
  2884   717   792    1
  2885  1578  1659    1
  2886  1578  1657    1
  2887  1578  1647    1
  2888  1416  1426    1
  2889  1416  1419    1
  2890  2433  2510    1
  2891  2433  2512    1
  2892  2433  2508    1
  2893  3294  3375    1
  2894  3294  3373    1
  2895  3294  3363    1
  2896  3132  3142    1
  2897  3132  3135    1
  2898   288   365    1
  2899   288   367    1
  2900   288   363    1
  2901  2004  2081    1
  2902  2004  2083    1
  2903  2004  2079    1
  2904  2865  2946    1
  2905  2865  2944    1
  2906  2865  2934    1
  2907  2703  2713    1
  2908  2703  2706    1
  2909  3720  3797    1
  2910  3720  3799    1
  2911  3720  3795    1
  2912  1575  1652    1
  2913  1575  1654    1
  2914  1575  1650    1
  2915   984   986    1
  2916   984   990    1
  2917  3291  3368    1
  2918  3291  3370    1
  2919  3291  3366    1
  2920   986   992    1
  2921   555   557    1
  2922   555   561    1
  2923  2862  2939    1
  2924  2862  2941    1
  2925  2862  2937    1
  2926  2271  2273    1
  2927  2271  2277    1
  2928   557   563    1
  2929   126   128    1
  2930   126   132    1
  2931  2273  2279    1
  2932  1842  1844    1
  2933  1842  1848    1
  2934   128   134    1
  2935  3558  3560    1
  2936  3558  3564    1
  2937  1844  1850    1
  2938  1413  1415    1
  2939  1413  1419    1
  2940  1169  1239    1
  2941  3560  3566    1
  2942  3129  3131    1
  2943  3129  3135    1
  2944  1415  1421    1
  2945   740   810    1
  2946  3131  3137    1
  2947  2700  2702    1
  2948  2700  2706    1
  2949  1230  1148    1
  2950  2456  2526    1
  2951   311   381    1
  2952  2702  2708    1
  2953   801   719    1
  2954  2027  2097    1
  2955  2517  2435    1
  2956  3743  3813    1
  2957   372   290    1
  2958  1598  1668    1
  2959  1223  1152    1
  2960  2088  2006    1
  2961  3314  3384    1
  2962  1211  1167    1
  2963  3804  3722    1
  2964   794   723    1
  2965  1659  1577    1
  2966  2885  2955    1
  2967   782   738    1
  2968   782  1168    1
  2969  2510  2439    1
  2970  3375  3293    1
  2971  2498  2454    1
  2972   365   294    1
  2973   353   309    1
  2974   353   739    1
  2975  2081  2010    1
  2976  2946  2864    1
  2977  2069  2025    1
  2978  2069  2455    1
  2979   990  1001    1
  2980   990   998    1
  2981  3797  3726    1
  2982  3785  3741    1
  2983  1652  1581    1
  2984  1640  1596    1
  2985  1640  2026    1
  2986   561   572    1
  2987   561   569    1
  2988  3368  3297    1
  2989  3356  3312    1
  2990  3356  3742    1
  2991  2277  2288    1
  2992  2277  2285    1
  2993   132   143    1
  2994   132   140    1
  2995  2939  2868    1
  2996  2927  2883    1
  2997  2927  3313    1
  2998  1848  1859    1
  2999  1848  1856    1
  3000  3564  3575    1
  3001  3564  3572    1
  3002  1419  1430    1
  3003  1419  1427    1
  3004  1228  1148    1
  3005  3135  3146    1
  3006  3135  3143    1
  3007   799   719    1
  3008  1225  1152    1
  3009  2706  2717    1
  3010  2706  2714    1
  3011  2515  2435    1
  3012   370   290    1
  3013  1239  1152    1
  3014   796   723    1
  3015  2086  2006    1
  3016  2512  2439    1
  3017   810   723    1
  3018  3802  3722    1
  3019   367   294    1
  3020  1657  1577    1
  3021  2526  2439    1
  3022  2083  2010    1
  3023   381   294    1
  3024  3373  3293    1
  3025  3799  3726    1
  3026  2097  2010    1
  3027  1654  1581    1
  3028  2944  2864    1
  3029  3813  3726    1
  3030  3370  3297    1
  3031  1668  1581    1
  3032  3384  3297    1
  3033  2941  2868    1
  3034  2955  2868    1
  3035  1218  1180    1
  3036   789   751    1
  3037  2505  2467    1
  3038   360   322    1
  3039  1221  1177    1
  3040  2076  2038    1
  3041   792   748    1
  3042  3792  3754    1
  3043  1647  1609    1
  3044  2508  2464    1
  3045   363   319    1
  3046  3363  3325    1
  3047  1148  1219    1
  3048  1148  1268    1
  3049  2079  2035    1
  3050  2934  2896    1
  3051   719   790    1
  3052   719   839    1
  3053  3795  3751    1
  3054  1152  1215    1
  3055  1152  1265    1
  3056  1650  1606    1
  3057  2435  2506    1
  3058  2435  2555    1
  3059   290   361    1
  3060   290   410    1
  3061  3366  3322    1
  3062   723   786    1
  3063   723   836    1
  3064  2006  2077    1
  3065  2006  2126    1
  3066  2439  2502    1
  3067  2439  2552    1
  3068  2937  2893    1
  3069  3722  3793    1
  3070  3722  3842    1
  3071   294   357    1
  3072   294   407    1
  3073  1577  1648    1
  3074  1577  1697    1
  3075  2010  2073    1
  3076  2010  2123    1
  3077  3293  3364    1
  3078  3293  3413    1
  3079  3726  3789    1
  3080  3726  3839    1
  3081  1581  1644    1
  3082  1581  1694    1
  3083  2864  2935    1
  3084  2864  2984    1
  3085  3297  3360    1
  3086  3297  3410    1
  3087  2868  2931    1
  3088  2868  2981    1
  3089  1166  1188    1
  3090   737   759    1
  3091  1251  1255    1
  3092  1164  1191    1
  3093  2453  2475    1
  3094   308   330    1
  3095   822   826    1
  3096   735   762    1
  3097  2024  2046    1
  3098  2538  2542    1
  3099  2451  2478    1
  3100  3740  3762    1
  3101   393   397    1
  3102   306   333    1
  3103  1595  1617    1
  3104  2109  2113    1
  3105  2022  2049    1
  3106  3311  3333    1
  3107  3825  3829    1
  3108  3738  3765    1
  3109  1680  1684    1
  3110  1593  1620    1
  3111  2882  2904    1
  3112  3396  3400    1
  3113  3309  3336    1
  3114  2967  2971    1
  3115  2880  2907    1
  3116  1180  1219    1
  3117  1180  1184    1
  3118   751   790    1
  3119   751   755    1
  3120  2467  2506    1
  3121  2467  2471    1
  3122   322   361    1
  3123   322   326    1
  3124  1177  1215    1
  3125  1177  1181    1
  3126  2038  2077    1
  3127  2038  2042    1
  3128  3754  3793    1
  3129  3754  3758    1
  3130   748   786    1
  3131   748   752    1
  3132  1609  1648    1
  3133  1609  1613    1
  3134  2464  2502    1
  3135  2464  2468    1
  3136  3325  3364    1
  3137  3325  3329    1
  3138  2539  1261    1
  3139   319   357    1
  3140   319   323    1
  3141  1255  1261    1
  3142  1255  1259    2
  3143  2035  2073    1
  3144  2035  2039    1
  3145  2896  2935    1
  3146  2896  2900    1
  3147  2110   832    1
  3148   826   832   ar
  3149   826   830   ar
  3150  3751  3789    1
  3151  3751  3755    2
  3152  3826  2548    1
  3153  1606  1644    1
  3154  1606  1610    1
  3155  2542  2548    1
  3156  2542  2546    2
  3157  1681   403    1
  3158   397   403   ar
  3159   397   401   ar
  3160  3322  3360    1
  3161  3322  3326    2
  3162  3397  2119    1
  3163  2113  2119   ar
  3164  2113  2117   ar
  3165  2893  2931    1
  3166  2893  2897    2
  3167  3829  3835    1
  3168  3829  3833    2
  3169  2968  1690    1
  3170  1245  1259    1
  3171  1684  1690   ar
  3172  1684  1688   ar
  3173  3400  3406    1
  3174  3400  3404    2
  3175  1268  1197    1
  3176   816   830    1
  3177  2532  2546    1
  3178  2971  2977    1
  3179  2971  2975    2
  3180  1188  1184    1
  3181   839   768    1
  3182   387   401    1
  3183  2555  2484    1
  3184  2103  2117    1
  3185   759   755   ar
  3186   759  1190   ar
  3187   410   339    1
  3188  3819  3833    1
  3189  2475  2471    1
  3190  2126  2055    1
  3191  1265  1197    1
  3192  1674  1688    1
  3193  1191  1181   ar
  3194  1191  2473   ar
  3195   330   326   ar
  3196   330   761   ar
  3197  3842  3771    1
  3198  3390  3404    1
  3199   832  2547   ar
  3200  2046  2042   ar
  3201  2046  2477   ar
  3202  1697  1626    1
  3203   836   768    1
  3204   762   752   ar
  3205   762  2044   ar
  3206  3762  3758    1
  3207  3413  3342    1
  3208  2552  2484    1
  3209  2961  2975    1
  3210  2478  2468   ar
  3211  2478  3760   ar
  3212   403  2118   ar
  3213  1617  1613   ar
  3214  1617  2048   ar
  3215   407   339    1
  3216   333   323   ar
  3217   333  1615   ar
  3218  2119  3834   ar
  3219  3333  3329   ar
  3220  3333  3764   ar
  3221  2984  2913    1
  3222  2123  2055    1
  3223  2049  2039   ar
  3224  2049  3331   ar
  3225   830  2549   ar
  3226  3839  3771    1
  3227  3765  3755    1
  3228  1690  3405   ar
  3229  2904  2900   ar
  3230  2904  3335   ar
  3231  1694  1626    1
  3232  1620  1610   ar
  3233  1620  2902   ar
  3234   401  2120   ar
  3235  3410  3342    1
  3236  3336  3326    1
  3237  2117  3836   ar
  3238  2981  2913    1
  3239  2907  2897    1
  3240  1688  3407   ar
  3241  1184  1189    2
  3242  1197  1253    1
  3243  1165  1186    1
  3244   755   760   ar
  3245   768   824    1
  3246  2471  2476    2
  3247  2484  2540    1
  3248   736   757    1
  3249   326   331   ar
  3250   339   395    1
  3251  1181  1185   ar
  3252  2452  2473    1
  3253  2042  2047   ar
  3254  2055  2111    1
  3255   307   328    1
  3256  3758  3763    2
  3257   752   756   ar
  3258  3771  3827    1
  3259  2023  2044    1
  3260  1613  1618   ar
  3261  1626  1682    1
  3262  2468  2472   ar
  3263  3739  3760    1
  3264  3329  3334   ar
  3265   323   327   ar
  3266  3342  3398    1
  3267  1594  1615    1
  3268  1161  1190    1
  3269  2039  2043   ar
  3270  3310  3331    1
  3271  2900  2905   ar
  3272  2913  2969    1
  3273  3755  3759    1
  3274   732   761    1
  3275  1610  1614   ar
  3276  2881  2902    1
  3277  2448  2477    1
  3278  3326  3330    1
  3279   303   332    1
  3280  2019  2048    1
  3281  2897  2901    1
  3282  1186  1182    1
  3283  3735  3764    1
  3284  1590  1619    1
  3285  1260  1244    1
  3286  1260  1256    1
  3287   757   753    1
  3288  3306  3335    1
  3289  2473  2469   ar
  3290   831   815    1
  3291   831   827    1
  3292   328   324    1
  3293  2877  2906    1
  3294  1190  1183   ar
  3295  2547  2531    1
  3296  2547  2543   ar
  3297  2044  2040   ar
  3298  1262  1256    1
  3299  1262  1248    1
  3300   402   386    1
  3301   402   398    1
  3302  3760  3756   ar
  3303   761   754   ar
  3304  2118  2102    1
  3305  2118  2114   ar
  3306  1615  1611   ar
  3307   833   827    1
  3308   833   819    1
  3309  2477  2470   ar
  3310  3834  3818    1
  3311  3834  3830   ar
  3312  3331  3327   ar
  3313   332   325    1
  3314  2549  2543   ar
  3315  2549  2535    1
  3316  1689  1673    1
  3317  1689  1685    1
  3318   404   398    1
  3319   404   390    1
  3320  2048  2041   ar
  3321  3405  3389    1
  3322  3405  3401   ar
  3323  2902  2898   ar
  3324  2120  2114   ar
  3325  2120  2106    1
  3326  3764  3757   ar
  3327  1619  1612    1
  3328  3836  3830   ar
  3329  3836  3822    1
  3330  2976  2960    1
  3331  2976  2972    1
  3332  1691  1685    1
  3333  1691  1677    1
  3334  3335  3328   ar
  3335  3407  3401   ar
  3336  3407  3393    1
  3337  2906  2899    1
  3338  2978  2972    1
  3339  2978  2964    1
  3340  1256  1198    2
  3341   827   769    2
  3342  1253  1257   ar
  3343  1253  1263   ar
  3344  1250  1257    1
  3345  2543  2485    1
  3346   398   340    2
  3347   824   828   ar
  3348   824   834   ar
  3349   821   828    1
  3350  2114  2056    1
  3351  2540  2544   ar
  3352  2540  2550   ar
  3353  2537  2544    1
  3354   395   399   ar
  3355   395   405   ar
  3356  3830  3772    1
  3357   392   399    1
  3358  1685  1627    2
  3359  2111  2115   ar
  3360  2111  2121   ar
  3361  2108  2115    1
  3362  3401  3343    1
  3363  3827  3831   ar
  3364  3827  3837   ar
  3365  3824  3831    1
  3366  1246  1263    1
  3367  1682  1686   ar
  3368  1682  1692   ar
  3369  1679  1686    1
  3370  2972  2914    2
  3371  3398  3402   ar
  3372  3398  3408   ar
  3373  3395  3402    1
  3374   817   834    1
  3375  2533  2550    1
  3376  2969  2973   ar
  3377  2969  2979   ar
  3378  2966  2973    1
  3379   388   405    1
  3380  1189  1162    1
  3381  2104  2121    1
  3382  3820  3837    1
  3383   760   733    1
  3384   760  1187   ar
  3385  1675  1692    1
  3386  1174  1213    1
  3387  2476  2449    1
  3388  3391  3408    1
  3389  1257  1264   ar
  3390   331   304    1
  3391   331   758   ar
  3392   745   784    1
  3393  2047  2020    1
  3394  2047  2474   ar
  3395  2962  2979    1
  3396   828   835   ar
  3397  2461  2500    1
  3398  3763  3736    1
  3399  1185  1213    1
  3400  1185  2479   ar
  3401  2544  2551   ar
  3402   316   355    1
  3403  1618  1591    1
  3404  1618  2045   ar
  3405  1263  1258   ar
  3406   399   406   ar
  3407  2032  2071    1
  3408  3334  3307    1
  3409  3334  3761   ar
  3410   756   784    1
  3411   756  2050   ar
  3412  2115  2122   ar
  3413  3748  3787    1
  3414   834   829   ar
  3415  2472  2500    1
  3416  2472  3766   ar
  3417  3831  3838   ar
  3418  1603  1642    1
  3419  2905  2878    1
  3420  2905  3332   ar
  3421   327   355    1
  3422   327  1621   ar
  3423  2550  2545   ar
  3424  1686  1693   ar
  3425  3319  3358    1
  3426   405   400   ar
  3427  2043  2071    1
  3428  2043  3337   ar
  3429  3402  3409   ar
  3430  2121  2116   ar
  3431  3759  3787    1
  3432  2890  2929    1
  3433  1614  1642    1
  3434  1614  2908   ar
  3435  3837  3832   ar
  3436  2973  2980   ar
  3437  1692  1687   ar
  3438  3330  3358    1
  3439  3408  3403   ar
  3440  1182  1192    2
  3441  1182  1178    1
  3442  2901  2929    1
  3443  2979  2974   ar
  3444   753   763    2
  3445   753   749    1
  3446  2469  2479   ar
  3447  2469  2465    1
  3448   324   334    2
  3449   324   320    1
  3450  1198  1266    1
  3451  1198  1267    1
  3452  1183  1187   ar
  3453  1183  1179    1
  3454  2040  2050   ar
  3455  2040  2036    1
  3456   769   837    1
  3457   769   838    1
  3458  3756  3766   ar
  3459  3756  3752    1
  3460   754   758   ar
  3461   754   750    1
  3462  1611  1621   ar
  3463  1611  1607    1
  3464  2485  2553    1
  3465  2485  2554    1
  3466  2470  2474   ar
  3467  2470  2466    1
  3468   340   408    1
  3469   340   409    1
  3470  3327  3337   ar
  3471  3327  3323    1
  3472   325   329    2
  3473   325   321    1
  3474  1213  1173    1
  3475  2056  2124    1
  3476  2056  2125    1
  3477  2041  2045   ar
  3478  2041  2037    1
  3479  2898  2908   ar
  3480  2898  2894    1
  3481  3772  3840    1
  3482  3772  3841    1
  3483  3757  3761   ar
  3484  3757  3753    1
  3485   784   744    1
  3486  1627  1695    1
  3487  1627  1696    1
  3488  1612  1616    2
  3489  1612  1608    1
  3490  2500  2460    1
  3491  3343  3411    1
  3492  3343  3412    1
  3493  3328  3332   ar
  3494  3328  3324    1
  3495   355   315    1
  3496  2071  2031    1
  3497  2914  2982    1
  3498  2914  2983    1
  3499  2899  2903    2
  3500  2899  2895    1
  3501  3787  3747    1
  3502  1642  1602    1
  3503  1266  1151    1
  3504  3358  3318    1
  3505  1192  1163    1
  3506   837   722    1
  3507  1267  1147    1
  3508  2929  2889    1
  3509   763   734    1
  3510  2553  2438    1
  3511  1216  1178    1
  3512  1216  1151    1
  3513  1187  1214    1
  3514  2479  2450    1
  3515   408   293    1
  3516   838   718    1
  3517  1264  1247    1
  3518  1264  1254   ar
  3519   334   305    1
  3520  2124  2009    1
  3521  2554  2434    1
  3522   787   749    1
  3523   787   722    1
  3524   758   785    1
  3525  2050  2021    1
  3526   409   289    1
  3527   835   818    1
  3528   835   825   ar
  3529  3840  3725    1
  3530  2503  2465    1
  3531  2503  2438    1
  3532  1220  1179    1
  3533  1220  1147    1
  3534  2474  2501    1
  3535  3766  3737    1
  3536  1695  1580    1
  3537  2125  2005    1
  3538   358   320    1
  3539   358   293    1
  3540  2551  2534    1
  3541  2551  2541   ar
  3542   329   356    1
  3543  1621  1592    1
  3544  1258  1243    1
  3545  1258  1254   ar
  3546   406   389    1
  3547   406   396   ar
  3548  3411  3296    1
  3549  3841  3721    1
  3550  2074  2036    1
  3551  2074  2009    1
  3552   791   750    1
  3553   791   718    1
  3554  2045  2072    1
  3555  3337  3308    1
  3556  1696  1576    1
  3557  2122  2105    1
  3558  2122  2112   ar
  3559  3790  3752    1
  3560  3790  3725    1
  3561  2507  2466    1
  3562  2507  2434    1
  3563   829   814    1
  3564   829   825   ar
  3565  3761  3788    1
  3566  2982  2867    1
  3567  3412  3292    1
  3568  1645  1607    1
  3569  1645  1580    1
  3570  3838  3821    1
  3571  3838  3828   ar
  3572   362   321    1
  3573   362   289    1
  3574  1616  1643    1
  3575  2908  2879    1
  3576  2545  2530    1
  3577  2545  2541   ar
  3578  1693  1676    1
  3579  1693  1683   ar
  3580  3361  3323    1
  3581  3361  3296    1
  3582  2078  2037    1
  3583  2078  2005    1
  3584   400   385    1
  3585   400   396   ar
  3586  3332  3359    1
  3587  2983  2863    1
  3588  3409  3392    1
  3589  3409  3399   ar
  3590  3794  3753    1
  3591  3794  3721    1
  3592  2116  2101    1
  3593  2116  2112   ar
  3594  2932  2894    1
  3595  2932  2867    1
  3596  1649  1608    1
  3597  1649  1576    1
  3598  2903  2930    1
  3599  3832  3817    1
  3600  3832  3828   ar
  3601  2980  2963    1
  3602  2980  2970   ar
  3603  3365  3324    1
  3604  3365  3292    1
  3605  1687  1672    1
  3606  1687  1683   ar
  3607  3403  3388    1
  3608  3403  3399   ar
  3609  2936  2895    1
  3610  2936  2863    1
  3611  1178  1222    1
  3612  2974  2959    1
  3613  2974  2970   ar
  3614   749   793    1
  3615  2465  2509    1
  3616  1179  1217    1
  3617   320   364    1
  3618  2036  2080    1
  3619  1254  1249    1
  3620   750   788    1
  3621  3752  3796    1
  3622  2466  2504    1
  3623  1607  1651    1
  3624   825   820    1
  3625   321   359    1
  3626  3323  3367    1
  3627  2541  2536    1
  3628  2037  2075    1
  3629   396   391    1
  3630  3753  3791    1
  3631  2894  2938    1
  3632  2112  2107    1
  3633  1608  1646    1
  3634  3828  3823    1
  3635  3324  3362    1
  3636  1683  1678    1
  3637  3399  3394    1
  3638  2895  2933    1
  3639  2970  2965    1
  3640  1214  1175    1
  3641  1214  1176    1
  3642  1151  1240    1
  3643  1151  1224    1
  3644  1151  1226    1
  3645   785   746    1
  3646   785   747    1
  3647   722   811    1
  3648   722   795    1
  3649   722   797    1
  3650  2501  2462    1
  3651  2501  2463    1
  3652  1147  1229    1
  3653  1147  1227    1
  3654   356   317    1
  3655   356   318    1
  3656  2438  2527    1
  3657  2438  2511    1
  3658  2438  2513    1
  3659   293   382    1
  3660   293   366    1
  3661   293   368    1
  3662  2072  2033    1
  3663  2072  2034    1
  3664   718   800    1
  3665   718   798    1
  3666  2009  2098    1
  3667  2009  2082    1
  3668  2009  2084    1
  3669  3788  3749    1
  3670  3788  3750    1
  3671  2434  2516    1
  3672  2434  2514    1
  3673  1643  1604    1
  3674  1643  1605    1
  3675  3725  3814    1
  3676  3725  3798    1
  3677  3725  3800    1
  3678   289   371    1
  3679   289   369    1
  3680  1580  1669    1
  3681  1580  1653    1
  3682  1580  1655    1
  3683  3359  3320    1
  3684  3359  3321    1
  3685  2005  2087    1
  3686  2005  2085    1
  3687  3296  3385    1
  3688  3296  3369    1
  3689  3296  3371    1
  3690  1222  1145    1
  3691  3721  3803    1
  3692  3721  3801    1
  3693  2930  2891    1
  3694  2930  2892    1
  3695  1576  1658    1
  3696  1576  1656    1
  3697  2867  2956    1
  3698  2867  2940    1
  3699  2867  2942    1
  3700   793   716    1
  3701  3292  3374    1
  3702  3292  3372    1
  3703  2509  2432    1
  3704   364   287    1
  3705  2863  2945    1
  3706  2863  2943    1
  3707  1217  1150    1
  3708  2080  2003    1
  3709  1171  1212    1
  3710  3796  3719    1
  3711   788   721    1
  3712  1651  1574    1
  3713  2504  2437    1
  3714   742   783    1
  3715  3367  3290    1
  3716   359   292    1
  3717  2458  2499    1
  3718  2075  2008    1
  3719   313   354    1
  3720  2938  2861    1
  3721  3791  3724    1
  3722  2029  2070    1
  3723  1646  1579    1
  3724  3745  3786    1
  3725  3362  3295    1
  3726  1600  1641    1
  3727  3316  3357    1
  3728  2933  2866    1
  3729  1240  1170    1
  3730  2887  2928    1
  3731   811   741    1
  3732  1224  1145    1
  3733  2527  2457    1
  3734   382   312    1
  3735   795   716    1
  3736  2098  2028    1
  3737  2511  2432    1
  3738  3814  3744    1
  3739   366   287    1
  3740  1669  1599    1
  3741  1229  1150    1
  3742  2082  2003    1
  3743  3385  3315    1
  3744  3798  3719    1
  3745   800   721    1
  3746  1653  1574    1
  3747  2956  2886    1
  3748  2516  2437    1
  3749  3369  3290    1
  3750   371   292    1
  3751  2087  2008    1
  3752  2940  2861    1
  3753  3803  3724    1
  3754  1658  1579    1
  3755  3374  3295    1
  3756  2945  2866    1
  3757  1172  1212    1
  3758  1212  1207    1
  3759   743   783    1
  3760  1226  1145    1
  3761  2459  2499    1
  3762   783   778    1
  3763   314   354    1
  3764  2499  2494    1
  3765   797   716    1
  3766  2030  2070    1
  3767   354   349    1
  3768  2513  2432    1
  3769  1227  1150    1
  3770  3746  3786    1
  3771  2070  2065    1
  3772   368   287    1
  3773  1601  1641    1
  3774  3786  3781    1
  3775  2084  2003    1
  3776   798   721    1
  3777  3317  3357    1
  3778  1641  1636    1
  3779  3800  3719    1
  3780  2514  2437    1
  3781  3357  3352    1
  3782  1655  1574    1
  3783   369   292    1
  3784  2888  2928    1
  3785  3371  3290    1
  3786  2085  2008    1
  3787  2928  2923    1
  3788  1155  1206    1
  3789  3801  3724    1
  3790  2942  2861    1
  3791  1656  1579    1
  3792   726   777    1
  3793  3372  3295    1
  3794  2442  2493    1
  3795   297   348    1
  3796  2943  2866    1
  3797  1157  1209    1
  3798  2013  2064    1
  3799  1153  1204    1
  3800  3729  3780    1
  3801   728   780    1
  3802  1584  1635    1
  3803  2444  2496    1
  3804   724   775    1
  3805  3300  3351    1
  3806   299   351    1
  3807  2440  2491    1
  3808  2015  2067    1
  3809   295   346    1
  3810  2871  2922    1
  3811  3731  3783    1
  3812  2011  2062    1
  3813  1586  1638    1
  3814  3727  3778    1
  3815  3302  3354    1
  3816  1582  1633    1
  3817  1145  1236    1
  3818  1145  1238    1
  3819  3298  3349    1
  3820  2873  2925    1
  3821   716   807    1
  3822   716   809    1
  3823  2869  2920    1
  3824  2432  2523    1
  3825  2432  2525    1
  3826   287   378    1
  3827   287   380    1
  3828  1150  1233    1
  3829  1150  1231    1
  3830  2003  2094    1
  3831  2003  2096    1
  3832  3719  3810    1
  3833  3719  3812    1
  3834   721   804    1
  3835   721   802    1
  3836  1574  1665    1
  3837  1574  1667    1
  3838  2437  2520    1
  3839  2437  2518    1
  3840  3290  3381    1
  3841  3290  3383    1
  3842   292   375    1
  3843   292   373    1
  3844  2008  2091    1
  3845  2008  2089    1
  3846  2861  2952    1
  3847  2861  2954    1
  3848  3724  3807    1
  3849  3724  3805    1
  3850  1579  1662    1
  3851  1579  1660    1
  3852  3295  3378    1
  3853  3295  3376    1
  3854  2866  2949    1
  3855  2866  2947    1
  3856  1207  2493    2
  3857   778  2064    2
  3858  2494  3780    2
  3859   349  1635    2
  3860  2065  3351    2
  3861  1209   775    2
  3862  1636  2922    2
  3863   780   346    2
  3864  2496  2062    2
  3865  2067  1633    2
  3866  3783  3349    2
  3867  1137  1131    1
  3868  3354  2920    2
  3869   708   702    1
  3870  2424  2418    1
  3871   279   273    1
  3872  1995  1989    1
  3873  3711  3705    1
  3874  1566  1560    1
  3875  3282  3276    1
  3876  2853  2847    1
  3877  1142  1131    1
  3878  1131  1139    1
  3879  1131  1126    1
  3880   713   702    1
  3881  2429  2418    1
  3882   702   710    1
  3883   702   697    1
  3884   284   273    1
  3885  2418  2426    1
  3886  2418  2413    1
  3887  2000  1989    1
  3888   273   281    1
  3889   273   268    1
  3890  3716  3705    1
  3891  1989  1997    1
  3892  1989  1984    1
  3893  1571  1560    1
  3894  3705  3713    1
  3895  3705  3700    1
  3896  3287  3276    1
  3897  1560  1568    1
  3898  1560  1555    1
  3899  3276  3284    1
  3900  3276  3271    1
  3901  2858  2847    1
  3902  2847  2855    1
  3903  2847  2842    1
  3904  1138  1130    1
  3905   709   701    1
  3906  1126  1132    1
  3907  1126  1128    1
  3908  2425  2417    1
  3909   280   272    1
  3910   697   703    1
  3911   697   699    1
  3912  1996  1988    1
  3913  2413  2419    1
  3914  2413  2415    1
  3915  3712  3704    1
  3916   268   274    1
  3917   268   270    1
  3918  1567  1559    1
  3919  1984  1990    1
  3920  1984  1986    1
  3921  3283  3275    1
  3922  3700  3706    1
  3923  3700  3702    1
  3924  1555  1561    1
  3925  1555  1557    1
  3926  2854  2846    1
  3927  3271  3277    1
  3928  3271  3273    1
  3929  1143  1132    1
  3930  2842  2848    1
  3931  2842  2844    1
  3932   714   703    1
  3933  1134  1128    1
  3934  2430  2419    1
  3935   285   274    1
  3936   705   699    1
  3937  2001  1990    1
  3938  2421  2415    1
  3939   276   270    1
  3940  3717  3706    1
  3941  1132  1127    1
  3942  1572  1561    1
  3943  1992  1986    1
  3944  3288  3277    1
  3945  3708  3702    1
  3946   703   698    1
  3947  1128  1129    2
  3948  1563  1557    1
  3949  2419  2414    1
  3950  2859  2848    1
  3951  3279  3273    1
  3952   274   269    1
  3953   699   700    2
  3954  1136  1130    1
  3955  1990  1985    1
  3956  2415  2416    2
  3957  2850  2844    1
  3958   270   271    2
  3959  3706  3701    1
  3960   707   701    1
  3961  1561  1556    1
  3962  1986  1987    2
  3963  2423  2417    1
  3964  3277  3272    1
  3965  3702  3703    2
  3966   278   272    1
  3967  1557  1558    2
  3968  1994  1988    1
  3969  2848  2843    1
  3970  3273  3274    2
  3971  3710  3704    1
  3972  1565  1559    1
  3973  2844  2845    2
  3974  3281  3275    1
  3975  1130  1140    1
  3976  1130  1133    1
  3977  2852  2846    1
  3978   701   711    1
  3979   701   704    1
  3980  2417  2427    1
  3981  2417  2420    1
  3982   272   282    1
  3983   272   275    1
  3984  1988  1998    1
  3985  1988  1991    1
  3986  3704  3714    1
  3987  3704  3707    1
  3988  1559  1569    1
  3989  1559  1562    1
  3990  3275  3285    1
  3991  3275  3278    1
  3992  2846  2856    1
  3993  2846  2849    1
  3994  1127  1129    1
  3995  1127  1133    1
  3996  1129  1135    1
  3997   698   700    1
  3998   698   704    1
  3999  2414  2416    1
  4000  2414  2420    1
  4001   700   706    1
  4002   269   271    1
  4003   269   275    1
  4004  2416  2422    1
  4005  1985  1987    1
  4006  1985  1991    1
  4007   271   277    1
  4008  3701  3703    1
  4009  3701  3707    1
  4010  1987  1993    1
  4011  1556  1558    1
  4012  1556  1562    1
  4013  3703  3709    1
  4014  3272  3274    1
  4015  3272  3278    1
  4016  1558  1564    1
  4017  3274  3280    1
  4018  2843  2845    1
  4019  2843  2849    1
  4020  2845  2851    1
  4021  1133  1144    1
  4022  1133  1141    1
  4023   704   715    1
  4024   704   712    1
  4025  2420  2431    1
  4026  2420  2428    1
  4027   275   286    1
  4028   275   283    1
  4029  1991  2002    1
  4030  1991  1999    1
  4031  3707  3718    1
  4032  3707  3715    1
  4033  1562  1573    1
  4034  1562  1570    1
  4035  3278  3289    1
  4036  3278  3286    1
  4037  2849  2860    1
  4038  2849  2857    1
  4039  1280  1274    1
  4040   851   845    1
  4041  2567  2561    1
  4042   422   416    1
  4043  2138  2132    1
  4044  3854  3848    1
  4045  1709  1703    1
  4046  3425  3419    1
  4047  2996  2990    1
  4048  1285  1274    1
  4049  1274  1282    1
  4050  1274  1269    1
  4051   856   845    1
  4052  2572  2561    1
  4053   845   853    1
  4054   845   840    1
  4055   427   416    1
  4056  2561  2569    1
  4057  2561  2556    1
  4058  2143  2132    1
  4059   416   424    1
  4060   416   411    1
  4061  3859  3848    1
  4062  2132  2140    1
  4063  2132  2127    1
  4064  1714  1703    1
  4065  3848  3856    1
  4066  3848  3843    1
  4067  3430  3419    1
  4068  1703  1711    1
  4069  1703  1698    1
  4070  3419  3427    1
  4071  3419  3414    1
  4072  3001  2990    1
  4073  2990  2998    1
  4074  2990  2985    1
  4075  1281  1273    1
  4076   852   844    1
  4077  1269  1275    1
  4078  1269  1271    1
  4079  2568  2560    1
  4080   423   415    1
  4081   840   846    1
  4082   840   842    1
  4083  2139  2131    1
  4084  2556  2562    1
  4085  2556  2558    1
  4086  3855  3847    1
  4087   411   417    1
  4088   411   413    1
  4089  1710  1702    1
  4090  2127  2133    1
  4091  2127  2129    1
  4092  3426  3418    1
  4093  3843  3849    1
  4094  3843  3845    1
  4095  1698  1704    1
  4096  1698  1700    1
  4097  2997  2989    1
  4098  3414  3420    1
  4099  3414  3416    1
  4100  1286  1275    1
  4101  2985  2991    1
  4102  2985  2987    1
  4103   857   846    1
  4104  1277  1271    1
  4105  2573  2562    1
  4106   428   417    1
  4107   848   842    1
  4108  2144  2133    1
  4109  2564  2558    1
  4110   419   413    1
  4111  3860  3849    1
  4112  1275  1270    1
  4113  1715  1704    1
  4114  2135  2129    1
  4115  3431  3420    1
  4116  3851  3845    1
  4117   846   841    1
  4118  1271  1272    2
  4119  1706  1700    1
  4120  2562  2557    1
  4121  3002  2991    1
  4122  3422  3416    1
  4123   417   412    1
  4124   842   843    2
  4125  1279  1273    1
  4126  2133  2128    1
  4127  2558  2559    2
  4128  2993  2987    1
  4129   413   414    2
  4130  3849  3844    1
  4131   850   844    1
  4132  1704  1699    1
  4133  2129  2130    2
  4134  2566  2560    1
  4135  3420  3415    1
  4136  3845  3846    2
  4137   421   415    1
  4138  1700  1701    2
  4139  2137  2131    1
  4140  2991  2986    1
  4141  3416  3417    2
  4142  3853  3847    1
  4143  1708  1702    1
  4144  2987  2988    2
  4145  3424  3418    1
  4146  1273  1283    1
  4147  1273  1276    1
  4148  2995  2989    1
  4149   844   854    1
  4150   844   847    1
  4151  2560  2570    1
  4152  2560  2563    1
  4153   415   425    1
  4154   415   418    1
  4155  2131  2141    1
  4156  2131  2134    1
  4157  3847  3857    1
  4158  3847  3850    1
  4159  1702  1712    1
  4160  1702  1705    1
  4161  3418  3428    1
  4162  3418  3421    1
  4163  2989  2999    1
  4164  2989  2992    1
  4165  1270  1272    1
  4166  1270  1276    1
  4167  1272  1278    1
  4168   841   843    1
  4169   841   847    1
  4170  2557  2559    1
  4171  2557  2563    1
  4172   843   849    1
  4173   412   414    1
  4174   412   418    1
  4175  2559  2565    1
  4176  2128  2130    1
  4177  2128  2134    1
  4178   414   420    1
  4179  3844  3846    1
  4180  3844  3850    1
  4181  2130  2136    1
  4182  1699  1701    1
  4183  1699  1705    1
  4184  3846  3852    1
  4185  3415  3417    1
  4186  3415  3421    1
  4187  1701  1707    1
  4188  3417  3423    1
  4189  2986  2988    1
  4190  2986  2992    1
  4191  2988  2994    1
  4192  1276  1287    1
  4193  1276  1284    1
  4194   847   858    1
  4195   847   855    1
  4196  2563  2574    1
  4197  2563  2571    1
  4198   418   429    1
  4199   418   426    1
  4200  2134  2145    1
  4201  2134  2142    1
  4202  3850  3861    1
  4203  3850  3858    1
  4204  1705  1716    1
  4205  1705  1713    1
  4206  3421  3432    1
  4207  3421  3429    1
  4208  2992  3003    1
  4209  2992  3000    1
