@<TRIPOS>MOLECULE
Lattice="31.99887642195921 -1.114529886 0.179136444 -13.034058509607004 29.2250191827707 -0.113036838 -9.26929283793722 -14.132872658546185 26.189218490489594" Properties=species:S:1:pos:R:3 i=120 E=-1362.4912331307 pbc="T T T"
 1144 1220 0 0 0
SMALL
GASTEIGER

@<TRIPOS>ATOM
      1 TI         -2.8554    2.2298   11.2464 Ti      1  UNL1        0.0000
      2 TI          7.9750    5.1110    1.8816 Ti      1  UNL1        0.0000
      3 TI          1.2413   -1.7064    9.4264 Ti      1  UNL1        0.0000
      4 TI          2.7524    7.4557    3.6534 Ti      1  UNL1        0.0000
      5 TI          1.7539    9.1340    1.7490 Ti      1  UNL1        0.0000
      6 TI          3.1295   -1.9608   11.3798 Ti      1  UNL1        0.0000
      7 TI         -1.9062    0.4939    9.3549 Ti      1  UNL1        0.0000
      8 TI          5.9872    5.4135    3.7291 Ti      1  UNL1        0.0000
      9 H          -2.3536    6.1268   11.0269 H       1  UNL1        0.0000
     10 H           8.7838    1.2049    2.2023 H       1  UNL1        0.0000
     11 H          -6.8153    1.4731   10.8639 H       1  UNL1        0.0000
     12 H          11.3572    7.1153    2.0822 H       1  UNL1        0.0000
     13 H           4.1051   -5.9953   10.9939 H       1  UNL1        0.0000
     14 H          -2.3047    8.5441    2.0711 H       1  UNL1        0.0000
     15 H           2.2483    7.4972   -0.1241 H       1  UNL1        0.0000
     16 H           6.0995    4.8683    0.1817 H       1  UNL1        0.0000
     17 H           3.6394   -2.6279    5.8687 H       1  UNL1        0.0000
     18 H           1.0290    9.2927    7.2723 H       1  UNL1        0.0000
     19 H          -5.9789    3.8825    8.9990 H       1  UNL1        0.0000
     20 H          10.7298    3.0267    4.1876 H       1  UNL1        0.0000
     21 H          -3.6778    2.4351    5.6652 H       1  UNL1        0.0000
     22 H          -1.3462   10.9619    4.1022 H       1  UNL1        0.0000
     23 H           2.1461   12.2368    2.6045 H       1  UNL1        0.0000
     24 H           8.6260   -0.8139    3.4048 H       2  UNK2        0.0000
     25 H           4.8451    7.1358    2.3148 H       1  UNL1        0.0000
     26 H           0.1605    0.1420   10.7200 H       1  UNL1        0.0000
     27 H           7.3642   -0.0259    9.7694 H       1  UNL1        0.0000
     28 H           5.8831   -0.4950   10.5168 H       1  UNL1        0.0000
     29 H           7.9383    4.4077    8.6705 H       1  UNL1        0.0000
     30 H           7.3686    4.7663    7.0520 H       1  UNL1        0.0000
     31 H           6.8754   -4.9808    9.5794 H       1  UNL1        0.0000
     32 H           5.5962   -3.8802   10.0368 H       1  UNL1        0.0000
     33 C           8.5531    4.3697    4.7451 C.3     1  UNL1        0.0000
     34 C          -3.8160    2.4911    8.3994 C.3     1  UNL1        0.0000
     35 C           3.8218   -2.7171    8.5017 C.3     1  UNL1        0.0000
     36 C           0.8163    9.4262    4.6127 C.3     1  UNL1        0.0000
     37 C           9.4491    3.7654    5.7403 C.ar    1  UNL1        0.0000
     38 C          -4.7479    3.1162    7.4223 C.2     1  UNL1        0.0000
     39 C           4.7619   -3.3315    7.5545 C.2     1  UNL1        0.0000
     40 C          -0.0735   10.0730    5.6125 C.ar    1  UNL1        0.0000
     41 C           9.2003    3.8403    7.1467 C.ar    1  UNL1        0.0000
     42 C          -4.5315    2.9962    6.0343 C.3     1  UNL1        0.0000
     43 C           5.8914   -4.0918    8.0076 C.2     1  UNL1        0.0000
     44 C          -1.1682   10.8460    5.1676 C.ar    1  UNL1        0.0000
     45 C           0.1810    9.9022    6.9674 C.ar    1  UNL1        0.0000
     46 C           4.5142   -3.1994    6.1706 C.3     1  UNL1        0.0000
     47 C          10.5828    3.0664    5.2646 C.ar    1  UNL1        0.0000
     48 C          -5.8481    3.8086    7.9210 C.2     1  UNL1        0.0000
     49 C           8.7648    1.2840    0.0582 C.2     1  UNL1        0.0000
     50 C           2.2951   13.0756    0.0832 C.2     1  UNL1        0.0000
     51 C          11.2493    7.0471   -0.0678 C.2     1  UNL1        0.0000
     52 C          -2.1091    8.5895   -0.0872 C.2     1  UNL1        0.0000
     53 C           3.4992    5.1125    5.6180 C.3     1  UNL1        0.0000
     54 C          -1.2569   -1.9819    7.5361 C.2     1  UNL1        0.0000
     55 C           8.6290    2.7388    0.0350 C.2     1  UNL1        0.0000
     56 C           2.2024   11.6421    0.0457 C.2     1  UNL1        0.0000
     57 C           9.9514    6.4303   -0.0210 C.2     1  UNL1        0.0000
     58 C          -0.7067    9.0039   -0.0628 C.2     1  UNL1        0.0000
     59 C           8.8042    0.6149    1.2879 C.3     1  UNL1        0.0000
     60 C          -2.3426    6.7152   11.9408 C.ar    1  UNL1        0.0000
     61 C          11.9046    7.3219    1.1661 C.2     1  UNL1        0.0000
     62 C          -7.3768    1.2938   11.7793 C.3     1  UNL1        0.0000
     63 C           7.3089    0.2494   11.7938 C.ar    1  UNL1        0.0000
     64 C          -2.8062    8.3591    1.1253 C.3     1  UNL1        0.0000
     65 C           4.1467   -6.5225   11.9429 C.3     1  UNL1        0.0000
     66 C           2.3089   13.8268    1.3125 C.2     1  UNL1        0.0000
     67 N           2.3639   13.2279    2.5506 N.pl3   1  UNL1        0.0000
     68 N           6.7299    0.0666   10.5548 N.pl3   1  UNL1        0.0000
     69 N           8.1194    4.4866    7.6780 N.pl3   1  UNL1        0.0000
     70 N           6.2224   -4.2500    9.3250 N.pl3   1  UNL1        0.0000
     71 O           7.3767    4.7748    5.1109 O.3     1  UNL1        0.0000
     72 O          -3.0470    1.5403    8.0011 O.3     1  UNL1        0.0000
     73 O           4.2032   -2.5927    9.7228 O.3     1  UNL1        0.0000
     74 O           0.7504    9.8559    3.4131 O.3     1  UNL1        0.0000
     75 O           1.5868    8.4690    4.9992 O.3     1  UNL1        0.0000
     76 O           2.6513   -2.3487    8.0962 O.3     1  UNL1        0.0000
     77 O           8.9649    4.4505    3.5334 O.3     1  UNL1        0.0000
     78 O          -3.8580    2.9274    9.5991 O.3     1  UNL1        0.0000
     79 O           6.2924    4.1956    2.5344 O.3     1  UNL1        0.0000
     80 O          -1.3538    2.0542   10.0994 O.3     1  UNL1        0.0000
     81 O           7.2312    6.4829    2.9843 O.3     1  UNL1        0.0000
     82 O          -3.1060    0.3296   10.5921 O.3     1  UNL1        0.0000
     83 O           1.5006   -2.8784   10.6868 O.3     1  UNL1        0.0000
     84 O           3.2690    9.0170    2.9149 O.3     1  UNL1        0.0000
     85 O           2.4545   -0.6169   10.2227 O.3     1  UNL1        0.0000
     86 O           1.5628    7.2599    2.3975 O.3     1  UNL1        0.0000
     87 O           3.8718   -3.7326   11.9889 O.2     1  UNL1        0.0000
     88 O           2.1193   10.9406    1.1409 O.2     1  UNL1        0.0000
     89 O           4.6739   -0.9445   11.9838 O.3     1  UNL1        0.0000
     90 O          -0.1167    9.1049    1.0808 O.2     1  UNL1        0.0000
     91 O           9.4121    6.1301    1.1270 O.2     1  UNL1        0.0000
     92 O          -4.7422    2.1697   11.9148 O.2     1  UNL1        0.0000
     93 O           8.6165    3.3758    1.1564 O.2     1  UNL1        0.0000
     94 O          -2.4740    3.9521   11.9961 O.3     1  UNL1        0.0000
     95 O           4.4842    6.5871    3.0354 O.3     1  UNL1        0.0000
     96 O          -0.2177   -0.4167   10.0165 O.3     1  UNL1        0.0000
     97 O           6.9383    5.3620    0.1026 O.3     1  UNL1        0.0000
     98 O           2.3707    8.4640   -0.0641 O.3     1  UNL1        0.0000
     99 H           3.7372    1.6043    8.6915 H       1  UNL1        0.0000
    100 H          -0.2086   -4.2588    6.5361 H       1  UNL1        0.0000
    101 H           4.8631   10.9281    4.5448 H       1  UNL1        0.0000
    102 H           4.7288    3.0932    6.9302 H       1  UNL1        0.0000
    103 H           0.0093    3.7265    8.3877 H       1  UNL1        0.0000
    104 H          -3.6126   -1.6428    6.2796 H       1  UNL1        0.0000
    105 H           1.3887    1.9415    9.4000 H       1  UNL1        0.0000
    106 H           0.9992    5.2180    6.6200 H       1  UNL1        0.0000
    107 H           6.0813    8.9038    3.8077 H       1  UNL1        0.0000
    108 H          -7.7309    8.8717    4.7147 H       3  UNK3        0.0000
    109 C           2.9202    4.2396    6.6658 C.ar    1  UNL1        0.0000
    110 C           1.8171    2.5819    8.6309 C.ar    1  UNL1        0.0000
    111 C           6.5081    9.5373    4.5836 C.ar    1  UNL1        0.0000
    112 C          -1.8566   -2.8687    6.5118 C.2     1  UNL1        0.0000
    113 C           1.5862    4.4246    7.0777 C.ar    1  UNL1        0.0000
    114 C           3.1456    2.3924    8.2281 C.ar    1  UNL1        0.0000
    115 C           5.8216   10.6851    5.0007 C.ar    1  UNL1        0.0000
    116 C          -1.1736   -4.0256    6.0913 C.3     1  UNL1        0.0000
    117 C           7.7477    9.2075    5.1460 C.ar    1  UNL1        0.0000
    118 C          -3.1056   -2.5457    5.9464 C.3     1  UNL1        0.0000
    119 C           3.6968    3.2186    7.2489 C.ar    1  UNL1        0.0000
    120 C           1.0385    3.5949    8.0573 C.ar    1  UNL1        0.0000
    121 O           4.6977    4.8608    5.2114 O.3     1  UNL1        0.0000
    122 O          -1.9214   -0.9530    7.9206 O.2     1  UNL1        0.0000
    123 O          -0.0917   -2.2688    7.9936 O.2     1  UNL1        0.0000
    124 O           2.7922    6.0670    5.1499 O.3     1  UNL1        0.0000
    125 N          16.8044   13.7376   31.8623 N.pl3   4  UNL4        0.0000
    126 N          15.3842   14.4968   30.3877 N.pl3   4  UNL4        0.0000
    127 C          16.7914   15.1199   31.9827 C.2     4  UNL4        0.0000
    128 C          15.9036   15.5929   31.0550 C.2     4  UNL4        0.0000
    129 C          15.0227   14.9635   27.9599 C.3     4  UNL4        0.0000
    130 C          17.5543   12.8060   32.7144 C.3     4  UNL4        0.0000
    131 C          15.9449   13.3820   30.8854 C.3     4  UNL4        0.0000
    132 C          14.3931   14.5470   29.2854 C.3     4  UNL4        0.0000
    133 H          17.4178   15.6428   32.6942 H       4  UNL4        0.0000
    134 H          15.6054   16.6020   30.8093 H       4  UNL4        0.0000
    135 H          15.4897   15.9545   28.0398 H       4  UNL4        0.0000
    136 H          18.5350   13.2398   32.9386 H       4  UNL4        0.0000
    137 H          15.7820   14.2432   27.6319 H       4  UNL4        0.0000
    138 H          16.9961   12.6181   33.6401 H       4  UNL4        0.0000
    139 H          14.2385   15.0126   27.1915 H       4  UNL4        0.0000
    140 H          13.6147   15.2508   29.6063 H       4  UNL4        0.0000
    141 H          17.6822   11.8554   32.1864 H       4  UNL4        0.0000
    142 H          15.7340   12.3650   30.5819 H       4  UNL4        0.0000
    143 H          13.9373   13.5508   29.2309 H       4  UNL4        0.0000
    144 TI         -7.4901   -4.8367   24.3410 Ti      5  UNL5        0.0000
    145 TI          3.3404   -1.9555   14.9762 Ti      1  UNL1        0.0000
    146 TI         -3.3934   -8.7729   22.5210 Ti      5  UNL5        0.0000
    147 TI         -1.8822    0.3893   16.7480 Ti      1  UNL1        0.0000
    148 TI         -2.8808    2.0676   14.8436 Ti      1  UNL1        0.0000
    149 TI         -1.5052   -9.0272   24.4744 Ti      5  UNL5        0.0000
    150 TI         -6.5409   -6.5726   22.4495 Ti      5  UNL5        0.0000
    151 TI          1.3526   -1.6529   16.8237 Ti      1  UNL1        0.0000
    152 H          -6.9882   -0.9396   24.1216 H       1  UNL1        0.0000
    153 H           4.1492   -5.8615   15.2969 H       1  UNL1        0.0000
    154 H         -11.4500   -5.5933   23.9586 H       2  UNK2        0.0000
    155 H           6.7225    0.0488   15.1769 H       1  UNL1        0.0000
    156 H          -0.5296  -13.0618   24.0885 H       4  UNL4        0.0000
    157 H          -6.9393    1.4777   15.1657 H       1  UNL1        0.0000
    158 H          -2.3863    0.4308   12.9705 H       1  UNL1        0.0000
    159 H           1.4649   -2.1982   13.2763 H       1  UNL1        0.0000
    160 H          -0.9953   -9.6943   18.9633 H       5  UNL5        0.0000
    161 H          -3.6056    2.2263   20.3670 H       1  UNL1        0.0000
    162 H         -10.6135   -3.1839   22.0936 H       5  UNL5        0.0000
    163 H           6.0951   -4.0398   17.2822 H       1  UNL1        0.0000
    164 H          -8.3124   -4.6314   18.7598 H       5  UNL5        0.0000
    165 H          -5.9809    3.8954   17.1969 H       1  UNL1        0.0000
    166 H          -2.4885    5.1704   15.6991 H       1  UNL1        0.0000
    167 H           3.9913   -7.8804   16.4994 H       6  UNK6        0.0000
    168 H           0.2104    0.0694   15.4094 H       1  UNL1        0.0000
    169 H          -4.4741   -6.9245   23.8147 H       5  UNL5        0.0000
    170 H           2.7295   -7.0924   22.8641 H       3  UNK3        0.0000
    171 H           1.2484   -7.5614   23.6114 H       3  UNK3        0.0000
    172 H           3.3037   -2.6587   21.7652 H       1  UNL1        0.0000
    173 H           2.7339   -2.3001   20.1466 H       1  UNL1        0.0000
    174 H           2.2407  -12.0472   22.6740 H       5  UNL5        0.0000
    175 H           0.9616  -10.9466   23.1314 H       5  UNL5        0.0000
    176 C           3.9184   -2.6967   17.8397 C.3     1  UNL1        0.0000
    177 C          -8.4506   -4.5753   21.4940 C.3     5  UNL5        0.0000
    178 C          -0.8129   -9.7836   21.5963 C.3     5  UNL5        0.0000
    179 C          -3.8183    2.3598   17.7074 C.3     1  UNL1        0.0000
    180 C           4.8144   -3.3010   18.8349 C.ar    1  UNL1        0.0000
    181 C          -9.3825   -3.9503   20.5169 C.2     5  UNL5        0.0000
    182 C           0.1273  -10.3979   20.6491 C.2     5  UNL5        0.0000
    183 C          -4.7081    3.0066   18.7071 C.ar    1  UNL1        0.0000
    184 C           4.5657   -3.2261   20.2413 C.ar    1  UNL1        0.0000
    185 C          -9.1661   -4.0703   19.1289 C.3     5  UNL5        0.0000
    186 C           1.2568  -11.1582   21.1022 C.2     5  UNL5        0.0000
    187 C          -5.8029    3.7795   18.2622 C.ar    1  UNL1        0.0000
    188 C          -4.4536    2.8358   20.0620 C.ar    1  UNL1        0.0000
    189 C          -0.1204  -10.2658   19.2652 C.3     5  UNL5        0.0000
    190 C           5.9481   -4.0000   18.3592 C.ar    1  UNL1        0.0000
    191 C         -10.4827   -3.2579   21.0156 C.2     5  UNL5        0.0000
    192 C           4.1302   -5.7824   13.1528 C.2     1  UNL1        0.0000
    193 C          -2.3395    6.0091   13.1778 C.ar    1  UNL1        0.0000
    194 C           6.6146   -0.0193   13.0268 C.ar    1  UNL1        0.0000
    195 C          -6.7437    1.5231   13.0074 C.2     1  UNL1        0.0000
    196 C          -1.1355   -1.9539   18.7126 C.3     1  UNL1        0.0000
    197 C          -5.8916   -9.0483   20.6307 C.2     5  UNL5        0.0000
    198 C           3.9943   -4.3276   13.1296 C.2     1  UNL1        0.0000
    199 C          -2.4323    4.5756   13.1403 C.3     1  UNL1        0.0000
    200 C           5.3168   -0.6362   13.0736 C.3     1  UNL1        0.0000
    201 C          -5.3414    1.9375   13.0319 C.2     1  UNL1        0.0000
    202 C           4.1695   -6.4516   14.3825 C.3     1  UNL1        0.0000
    203 C          -6.9773   -0.3512   25.0354 C.2     1  UNL1        0.0000
    204 C           7.2699    0.2555   14.2607 C.ar    1  UNL1        0.0000
    205 C         -12.0115   -5.7727   24.8739 C.3     7  UNL7        0.0000
    206 C           2.6743   -6.8170   24.8884 C.2     3  UNK3        0.0000
    207 C          -7.4409    1.2927   14.2199 C.3     1  UNL1        0.0000
    208 C          -0.4879  -13.5889   25.0375 C.3     8  UNL8        0.0000
    209 C          -2.3258    6.7603   14.4071 C.ar    1  UNL1        0.0000
    210 N          -2.2707    6.1615   15.6452 N.pl3   1  UNL1        0.0000
    211 N           2.0953   -6.9999   23.6494 N.pl3   3  UNK3        0.0000
    212 N           3.4848   -2.5799   20.7726 N.pl3   1  UNL1        0.0000
    213 N           1.5878  -11.3165   22.4196 N.pl3   5  UNL5        0.0000
    214 O           2.7421   -2.2916   18.2055 O.3     1  UNL1        0.0000
    215 O          -7.6816   -5.5262   21.0957 O.3     5  UNL5        0.0000
    216 O          -0.4314   -9.6591   22.8174 O.3     5  UNL5        0.0000
    217 O          -3.8842    2.7894   16.5078 O.3     1  UNL1        0.0000
    218 O          -3.0479    1.4026   18.0938 O.3     1  UNL1        0.0000
    219 O          -1.9833   -9.4151   21.1908 O.3     5  UNL5        0.0000
    220 O           4.3303   -2.6159   16.6280 O.3     1  UNL1        0.0000
    221 O          -8.4926   -4.1390   22.6937 O.3     5  UNL5        0.0000
    222 O           1.6578   -2.8708   15.6290 O.3     1  UNL1        0.0000
    223 O          -5.9884   -5.0122   23.1940 O.3     5  UNL5        0.0000
    224 O           2.5966   -0.5835   16.0789 O.3     1  UNL1        0.0000
    225 O          -7.7406   -6.7369   23.6867 O.3     5  UNL5        0.0000
    226 O          -3.1341   -9.9448   23.7814 O.3     5  UNL5        0.0000
    227 O          -1.3657    1.9506   16.0095 O.3     1  UNL1        0.0000
    228 O          -2.1801   -7.6833   23.3173 O.3     5  UNL5        0.0000
    229 O          -3.0719    0.1935   15.4921 O.3     1  UNL1        0.0000
    230 O          -0.7629  -10.7991   25.0835 O.3     5  UNL5        0.0000
    231 O          -2.5154    3.8742   14.2355 O.3     1  UNL1        0.0000
    232 O           0.0393   -8.0109   25.0784 O.3     5  UNL5        0.0000
    233 O          -4.7513    2.0385   14.1754 O.2     1  UNL1        0.0000
    234 O           4.7775   -0.9363   14.2216 O.3     1  UNL1        0.0000
    235 O          -9.3769   -4.8967   25.0094 O.3     5  UNL5        0.0000
    236 O           3.9819   -3.6907   14.2510 O.2     1  UNL1        0.0000
    237 O          -7.1087   -3.1144   25.0907 O.3     5  UNL5        0.0000
    238 O          -0.1504   -0.4794   16.1300 O.3     1  UNL1        0.0000
    239 O          -4.8524   -7.4832   23.1111 O.3     5  UNL5        0.0000
    240 O           2.3037   -1.7045   13.1972 O.3     1  UNL1        0.0000
    241 O          -2.2640    1.3976   13.0305 O.3     1  UNL1        0.0000
    242 H          -0.8975   -5.4621   21.7861 H       1  UNL1        0.0000
    243 H          -4.8432  -11.3253   19.6307 H       5  UNL5        0.0000
    244 H           0.2285    3.8616   17.6394 H       1  UNL1        0.0000
    245 H           0.0942   -3.9732   20.0249 H       1  UNL1        0.0000
    246 H          -4.6254   -3.3399   21.4823 H       1  UNL1        0.0000
    247 H          -8.2473   -8.7092   19.3742 H       5  UNL5        0.0000
    248 H          -3.2459   -5.1250   22.4946 H       1  UNL1        0.0000
    249 H          -3.6355   -1.8484   19.7146 H       1  UNL1        0.0000
    250 H           1.4467    1.8373   16.9023 H       1  UNL1        0.0000
    251 H         -12.3655    1.8053   17.8093 H       9  UNK9        0.0000
    252 C          -1.7144   -2.8269   19.7604 C.ar    1  UNL1        0.0000
    253 C          -2.8176   -4.4846   21.7255 C.ar    1  UNL1        0.0000
    254 C           1.8735    2.4709   17.6782 C.ar    1  UNL1        0.0000
    255 C          -6.4913   -9.9351   19.6064 C.2     5  UNL5        0.0000
    256 C          -3.0484   -2.6419   20.1723 C.ar    1  UNL1        0.0000
    257 C          -1.4891   -4.6740   21.3227 C.ar    1  UNL1        0.0000
    258 C           1.1869    3.6187   18.0953 C.ar    1  UNL1        0.0000
    259 C          -5.8082  -11.0921   19.1859 C.3     5  UNL5        0.0000
    260 C           3.1131    2.1410   18.2406 C.ar    1  UNL1        0.0000
    261 C          -7.7402   -9.6121   19.0410 C.3     5  UNL5        0.0000
    262 C          -0.9378   -3.8478   20.3435 C.ar    1  UNL1        0.0000
    263 C          -3.5961   -3.4715   21.1519 C.ar    1  UNL1        0.0000
    264 O           0.0631   -2.2057   18.3060 O.3     1  UNL1        0.0000
    265 O          -6.5561   -8.0195   21.0153 O.2     5  UNL5        0.0000
    266 O          -4.7263   -9.3352   21.0882 O.2     5  UNL5        0.0000
    267 O          -1.8424   -0.9994   18.2446 O.3     1  UNL1        0.0000
    268 N          12.1698    6.6711   44.9569 N.pl3  10  UNL10       0.0000
    269 N          10.7495    7.4304   43.4823 N.pl3  10  UNL10       0.0000
    270 C          12.1567    8.0534   45.0773 C.2    10  UNL10       0.0000
    271 C          11.2690    8.5264   44.1496 C.2    10  UNL10       0.0000
    272 C          10.3880    7.8971   41.0545 C.3    10  UNL10       0.0000
    273 C          12.9197    5.7396   45.8090 C.3    10  UNL10       0.0000
    274 C          11.3102    6.3156   43.9800 C.3    10  UNL10       0.0000
    275 C           9.7584    7.4806   42.3800 C.3    10  UNL10       0.0000
    276 H          12.7831    8.5763   45.7888 H      10  UNL10       0.0000
    277 H          10.9708    9.5355   43.9039 H      10  UNL10       0.0000
    278 H          10.8550    8.8880   41.1344 H      10  UNL10       0.0000
    279 H          13.9003    6.1734   46.0332 H      10  UNL10       0.0000
    280 H          11.1473    7.1768   40.7266 H      10  UNL10       0.0000
    281 H          12.3614    5.5517   46.7347 H      10  UNL10       0.0000
    282 H           9.6039    7.9462   40.2861 H      10  UNL10       0.0000
    283 H           8.9800    8.1843   42.7009 H      10  UNL10       0.0000
    284 H          13.0475    4.7889   45.2810 H      10  UNL10       0.0000
    285 H          11.0994    5.2986   43.6766 H      10  UNL10       0.0000
    286 H           9.3027    6.4844   42.3255 H      10  UNL10       0.0000
    287 TI         -9.3725   16.8423   11.1899 Ti      1  UNL1        0.0000
    288 TI          1.4580   19.7235    1.8251 Ti      1  UNL1        0.0000
    289 TI         -5.2758   12.9061    9.3699 Ti      1  UNL1        0.0000
    290 TI         -3.7646   22.0682    3.5969 Ti      1  UNL1        0.0000
    291 TI         -4.7632   23.7465    1.6925 Ti      1  UNL1        0.0000
    292 TI         -3.3876   12.6517   11.3233 Ti      1  UNL1        0.0000
    293 TI         -8.4233   15.1064    9.2984 Ti      1  UNL1        0.0000
    294 TI         -0.5298   20.0260    3.6725 Ti      1  UNL1        0.0000
    295 H          -8.8706   20.7394   10.9704 H       1  UNL1        0.0000
    296 H           2.2668   15.8174    2.1458 H       1  UNL1        0.0000
    297 H         -13.3324   16.0856   10.8074 H       1  UNL1        0.0000
    298 H           4.8402   21.7278    2.0257 H       1  UNL1        0.0000
    299 H          -2.4120    8.6172   10.9373 H       1  UNL1        0.0000
    300 H          -8.8217   23.1566    2.0145 H       1  UNL1        0.0000
    301 H          -4.2687   22.1097   -0.1806 H       1  UNL1        0.0000
    302 H          -0.4175   19.4808    0.1251 H       1  UNL1        0.0000
    303 H          -2.8777   11.9846    5.8122 H       1  UNL1        0.0000
    304 H          -5.4880   23.9052    7.2158 H       1  UNL1        0.0000
    305 H         -12.4959   18.4950    8.9425 H       1  UNL1        0.0000
    306 H           4.2128   17.6392    4.1311 H       1  UNL1        0.0000
    307 H         -10.1948   17.0476    5.6087 H       1  UNL1        0.0000
    308 H          -7.8632   25.5744    4.0457 H       1  UNL1        0.0000
    309 H          -4.3709   26.8494    2.5479 H       1  UNL1        0.0000
    310 H           2.1090   13.7986    3.3482 H       1  UNL1        0.0000
    311 H          -1.6720   21.7483    2.2582 H       1  UNL1        0.0000
    312 H          -6.3565   14.7545   10.6635 H       1  UNL1        0.0000
    313 H           0.8472   14.5866    9.7129 H       1  UNL1        0.0000
    314 H          -0.6340   14.1175   10.4603 H       1  UNL1        0.0000
    315 H           1.4213   19.0202    8.6140 H       1  UNL1        0.0000
    316 H           0.8516   19.3788    6.9955 H       1  UNL1        0.0000
    317 H           0.3584    9.6318    9.5229 H       1  UNL1        0.0000
    318 H          -0.9208   10.7323    9.9803 H       1  UNL1        0.0000
    319 C           2.0360   18.9822    4.6886 C.3     1  UNL1        0.0000
    320 C         -10.3330   17.1037    8.3428 C.3     1  UNL1        0.0000
    321 C          -2.6953   11.8954    8.4452 C.3     1  UNL1        0.0000
    322 C          -5.7007   24.0387    4.5562 C.3     1  UNL1        0.0000
    323 C           2.9321   18.3779    5.6838 C.ar    1  UNL1        0.0000
    324 C         -11.2649   17.7287    7.3658 C.2     1  UNL1        0.0000
    325 C          -1.7551   11.2810    7.4980 C.ar    1  UNL1        0.0000
    326 C          -6.5905   24.6855    5.5560 C.2     1  UNL1        0.0000
    327 C           2.6833   18.4528    7.0902 C.ar    1  UNL1        0.0000
    328 C         -11.0485   17.6087    5.9778 C.3     1  UNL1        0.0000
    329 C          -0.6256   10.5207    7.9511 C.ar    1  UNL1        0.0000
    330 C          -7.6853   25.4585    5.1111 C.3     1  UNL1        0.0000
    331 C          -6.3360   24.5148    6.9109 C.2     1  UNL1        0.0000
    332 C          -2.0028   11.4132    6.1141 C.ar    1  UNL1        0.0000
    333 C           4.0657   17.6789    5.2081 C.ar    1  UNL1        0.0000
    334 C         -12.3651   18.4211    7.8645 C.2     1  UNL1        0.0000
    335 C           2.2478   15.8965    0.0017 C.2     1  UNL1        0.0000
    336 C          -4.2219   27.6881    0.0267 C.2     1  UNL1        0.0000
    337 C           4.7323   21.6596   -0.1243 C.2     1  UNL1        0.0000
    338 C          -8.6261   23.2021   -0.1437 C.2     1  UNL1        0.0000
    339 C          -3.0179   19.7250    5.5615 C.3     1  UNL1        0.0000
    340 C          -7.7740   12.6307    7.4796 C.2     1  UNL1        0.0000
    341 C           2.1120   17.3514   -0.0215 C.2     1  UNL1        0.0000
    342 C          -4.3147   26.2546   -0.0108 C.2     1  UNL1        0.0000
    343 C           3.4344   21.0428   -0.0775 C.2     1  UNL1        0.0000
    344 C          -7.2238   23.6164   -0.1193 C.2     1  UNL1        0.0000
    345 C           2.2872   15.2274    1.2313 C.2     1  UNL1        0.0000
    346 C          -8.8597   21.3278   11.8843 C.3     1  UNL1        0.0000
    347 C           5.3876   21.9344    1.1096 C.2     1  UNL1        0.0000
    348 C         -13.8939   15.9063   11.7228 C.3     1  UNL1        0.0000
    349 C           0.7919   14.8619   11.7373 C.ar    1  UNL1        0.0000
    350 C          -9.3233   22.9716    1.0687 C.3     1  UNL1        0.0000
    351 C          -2.3703    8.0900   11.8864 C.ar    1  UNL1        0.0000
    352 C          -4.2081   28.4393    1.2559 C.3     1  UNL1        0.0000
    353 N          -4.1531   27.8404    2.4941 N.3     1  UNL1        0.0000
    354 N           0.2129   14.6791   10.4983 N.pl3   1  UNL1        0.0000
    355 N           1.6024   19.0991    7.6215 N.pl3   1  UNL1        0.0000
    356 N          -0.2946   10.3625    9.2684 N.pl3   1  UNL1        0.0000
    357 O           0.8597   19.3873    5.0544 O.3     1  UNL1        0.0000
    358 O          -9.5640   16.1528    7.9446 O.3     1  UNL1        0.0000
    359 O          -2.3138   12.0199    9.6663 O.3     1  UNL1        0.0000
    360 O          -5.7666   24.4684    3.3566 O.3     1  UNL1        0.0000
    361 O          -4.9302   23.0815    4.9427 O.3     1  UNL1        0.0000
    362 O          -3.8657   12.2638    8.0397 O.3     1  UNL1        0.0000
    363 O           2.4479   19.0630    3.4769 O.3     1  UNL1        0.0000
    364 O         -10.3750   17.5399    9.5426 O.3     1  UNL1        0.0000
    365 O          -0.2246   18.8081    2.4778 O.3     1  UNL1        0.0000
    366 O          -7.8708   16.6667   10.0429 O.3     1  UNL1        0.0000
    367 O           0.7142   21.0954    2.9278 O.3     1  UNL1        0.0000
    368 O          -9.6230   14.9421   10.5356 O.3     1  UNL1        0.0000
    369 O          -5.0165   11.7341   10.6303 O.3     1  UNL1        0.0000
    370 O          -3.2480   23.6295    2.8584 O.3     1  UNL1        0.0000
    371 O          -4.0625   13.9956   10.1661 O.3     1  UNL1        0.0000
    372 O          -4.9543   21.8724    2.3410 O.3     1  UNL1        0.0000
    373 O          -2.6453   10.8799   11.9324 O.3     1  UNL1        0.0000
    374 O          -4.3978   25.5531    1.0844 O.2     1  UNL1        0.0000
    375 O          -1.8431   13.6681   11.9272 O.3     1  UNL1        0.0000
    376 O          -6.6337   23.7174    1.0243 O.2     1  UNL1        0.0000
    377 O           2.8951   20.7426    1.0705 O.2     1  UNL1        0.0000
    378 O         -11.2593   16.7822   11.8583 O.2     1  UNL1        0.0000
    379 O           2.0995   17.9883    1.0999 O.2     1  UNL1        0.0000
    380 O          -8.9911   18.5646   11.9396 O.2     1  UNL1        0.0000
    381 O          -2.0328   21.1996    2.9789 O.3     1  UNL1        0.0000
    382 O          -6.7347   14.1958    9.9599 O.3     1  UNL1        0.0000
    383 O           0.4213   19.9745    0.0461 O.3     1  UNL1        0.0000
    384 O          -4.1463   23.0765   -0.1206 O.3     1  UNL1        0.0000
    385 H          -2.7799   16.2168    8.6350 H       1  UNL1        0.0000
    386 H          -6.7256   10.3537    6.4796 H       1  UNL1        0.0000
    387 H          -1.6539   25.5406    4.4883 H       5  UNL5        0.0000
    388 H          -1.7882   17.7057    6.8737 H       1  UNL1        0.0000
    389 H          -6.5078   18.3390    8.3312 H       1  UNL1        0.0000
    390 H         -10.1297   12.9697    6.2231 H       1  UNL1        0.0000
    391 H          -5.1283   16.5540    9.3435 H       1  UNL1        0.0000
    392 H          -5.5179   19.8305    6.5634 H       1  UNL1        0.0000
    393 H          -0.4357   23.5163    3.7512 H       5  UNL5        0.0000
    394 H         -14.2479   23.4842    4.6582 H      11  UNK11       0.0000
    395 C          -3.5968   18.8521    6.6093 C.ar    1  UNL1        0.0000
    396 C          -4.7000   17.1944    8.5743 C.ar    1  UNL1        0.0000
    397 C          -0.0089   24.1498    4.5271 C.2     5  UNL5        0.0000
    398 C          -8.3737   11.7438    6.4553 C.2     1  UNL1        0.0000
    399 C          -4.9308   19.0371    7.0212 C.ar    1  UNL1        0.0000
    400 C          -3.3715   17.0049    8.1716 C.ar    1  UNL1        0.0000
    401 C          -0.6955   25.2976    4.9442 C.3     5  UNL5        0.0000
    402 C          -7.6906   10.5869    6.0348 C.3     1  UNL1        0.0000
    403 C           1.2307   23.8200    5.0895 C.2     5  UNL5        0.0000
    404 C          -9.6226   12.0668    5.8899 C.3     1  UNL1        0.0000
    405 C          -2.8202   17.8312    7.1924 C.ar    1  UNL1        0.0000
    406 C          -5.4785   18.2075    8.0008 C.ar    1  UNL1        0.0000
    407 O          -1.8193   19.4733    5.1549 O.3     1  UNL1        0.0000
    408 O          -8.4385   13.6595    7.8641 O.2     1  UNL1        0.0000
    409 O          -6.6087   12.3437    7.9371 O.2     1  UNL1        0.0000
    410 O          -3.7248   20.6795    5.0934 O.3     1  UNL1        0.0000
    411 N          10.2874   28.3501   31.8057 N.pl3  12  UNL12       0.0000
    412 N           8.8671   29.1093   30.3312 N.pl3  12  UNL12       0.0000
    413 C          10.2743   29.7324   31.9262 C.2    12  UNL12       0.0000
    414 C           9.3866   30.2054   30.9985 C.2    12  UNL12       0.0000
    415 C           8.5056   29.5760   27.9034 C.3    12  UNL12       0.0000
    416 C          11.0373   27.4185   32.6579 C.3    12  UNL12       0.0000
    417 C           9.4278   27.9945   30.8289 C.3    12  UNL12       0.0000
    418 C           7.8760   29.1595   29.2289 C.3    12  UNL12       0.0000
    419 H          10.9007   30.2553   32.6377 H      12  UNL12       0.0000
    420 H           9.0884   31.2145   30.7528 H      12  UNL12       0.0000
    421 H           8.9727   30.5670   27.9833 H      12  UNL12       0.0000
    422 H          12.0179   27.8523   32.8821 H      12  UNL12       0.0000
    423 H           9.2649   28.8557   27.5754 H      12  UNL12       0.0000
    424 H          10.4791   27.2306   33.5835 H      12  UNL12       0.0000
    425 H           7.7215   29.6252   27.1350 H      12  UNL12       0.0000
    426 H           7.0976   29.8633   29.5498 H      12  UNL12       0.0000
    427 H          11.1651   26.4679   32.1299 H      12  UNL12       0.0000
    428 H           9.2170   26.9775   30.5254 H      12  UNL12       0.0000
    429 H           7.4203   28.1633   29.1744 H      12  UNL12       0.0000
    430 TI        -14.0071    9.7758   24.2845 Ti      1  UNL1        0.0000
    431 TI         -3.1766   12.6570   14.9197 Ti      1  UNL1        0.0000
    432 TI         -9.9104    5.8396   22.4645 Ti      1  UNL1        0.0000
    433 TI         -8.3992   15.0018   16.6915 Ti      1  UNL1        0.0000
    434 TI         -9.3978   16.6801   14.7871 Ti      1  UNL1        0.0000
    435 TI         -8.0222    5.5853   24.4179 Ti      1  UNL1        0.0000
    436 TI        -13.0579    8.0399   22.3930 Ti      1  UNL1        0.0000
    437 TI         -5.1645   12.9596   16.7671 Ti      1  UNL1        0.0000
    438 H         -13.5052   13.6729   24.0650 H       6  UNK6        0.0000
    439 H          -2.3679    8.7510   15.2404 H       1  UNL1        0.0000
    440 H         -17.9670    9.0192   23.9020 H       7  UNL7        0.0000
    441 H           0.2055   14.6613   15.1203 H       1  UNL1        0.0000
    442 H          -7.0466    1.5508   24.0320 H       1  UNL1        0.0000
    443 H         -13.4563   16.0902   15.1091 H       1  UNL1        0.0000
    444 H          -8.9034   15.0433   12.9140 H       1  UNL1        0.0000
    445 H          -5.0522   12.4144   13.2197 H       1  UNL1        0.0000
    446 H          -7.5123    4.9182   18.9068 H       1  UNL1        0.0000
    447 H         -10.1227   16.8388   20.3104 H       1  UNL1        0.0000
    448 H         -17.1305   11.4286   22.0371 H       1  UNL1        0.0000
    449 H          -0.4219   10.5727   17.2257 H       1  UNL1        0.0000
    450 H         -14.8294    9.9811   18.7033 H       1  UNL1        0.0000
    451 H         -12.4979   18.5079   17.1403 H       1  UNL1        0.0000
    452 H          -9.0056   19.7829   15.6426 H       1  UNL1        0.0000
    453 H          -2.5257    6.7322   16.4429 H       1  UNL1        0.0000
    454 H          -6.3066   14.6819   15.3528 H       1  UNL1        0.0000
    455 H         -10.9911    7.6880   23.7581 H       1  UNL1        0.0000
    456 H          -3.7875    7.5201   22.8075 H       8  UNL8        0.0000
    457 H          -5.2686    7.0511   23.5549 H       8  UNL8        0.0000
    458 H          -3.2134   11.9538   21.7086 H       1  UNL1        0.0000
    459 H          -3.7831   12.3124   20.0901 H       1  UNL1        0.0000
    460 H          -4.2763    2.5653   22.6175 H       1  UNL1        0.0000
    461 H          -5.5554    3.6659   23.0749 H       1  UNL1        0.0000
    462 C          -2.5986   11.9158   17.7832 C.3     1  UNL1        0.0000
    463 C         -14.9677   10.0372   21.4375 C.3     1  UNL1        0.0000
    464 C          -7.3299    4.8289   21.5398 C.3     1  UNL1        0.0000
    465 C         -10.3354   16.9723   17.6508 C.3     1  UNL1        0.0000
    466 C          -1.7026   11.3115   18.7784 C.ar    1  UNL1        0.0000
    467 C         -15.8996   10.6622   20.4604 C.2     1  UNL1        0.0000
    468 C          -6.3897    4.2146   20.5926 C.ar    1  UNL1        0.0000
    469 C         -11.2252   17.6191   18.6506 C.2     1  UNL1        0.0000
    470 C          -1.9513   11.3864   20.1848 C.ar    1  UNL1        0.0000
    471 C         -15.6832   10.5423   19.0724 C.3     1  UNL1        0.0000
    472 C          -5.2603    3.4543   21.0457 C.ar    1  UNL1        0.0000
    473 C         -12.3199   18.3920   18.2057 C.3     1  UNL1        0.0000
    474 C         -10.9707   17.4483   20.0055 C.2     1  UNL1        0.0000
    475 C          -6.6374    4.3467   19.2087 C.ar    1  UNL1        0.0000
    476 C          -0.5689   10.6125   18.3027 C.ar    1  UNL1        0.0000
    477 C         -16.9997   11.3547   20.9591 C.2     1  UNL1        0.0000
    478 C          -2.3868    8.8301   13.0963 C.ar    1  UNL1        0.0000
    479 C          -8.8566   20.6217   13.1213 C.2     1  UNL1        0.0000
    480 C           0.0976   14.5932   12.9703 C.ar    1  UNL1        0.0000
    481 C         -13.2607   16.1356   12.9509 C.2     1  UNL1        0.0000
    482 C          -7.6525   12.6586   18.6561 C.3     1  UNL1        0.0000
    483 C         -12.4086    5.5642   20.5742 C.2     1  UNL1        0.0000
    484 C          -2.5227   10.2849   13.0731 C.3     1  UNL1        0.0000
    485 C          -8.9493   19.1881   13.0838 C.2     1  UNL1        0.0000
    486 C          -1.2002   13.9764   13.0171 C.3     1  UNL1        0.0000
    487 C         -11.8584   16.5500   12.9753 C.2     1  UNL1        0.0000
    488 C          -2.3475    8.1610   14.3259 C.ar    1  UNL1        0.0000
    489 C         -13.4943   14.2613   24.9789 C.3    13  UNL13       0.0000
    490 C           0.7529   14.8680   14.2042 C.ar    1  UNL1        0.0000
    491 C         -18.5285    8.8398   24.8174 C.3    14  UNL14       0.0000
    492 C          -3.8427    7.7955   24.8319 C.2     8  UNL8        0.0000
    493 C         -13.9579   15.9052   14.1633 C.3     1  UNL1        0.0000
    494 C          -7.0050    1.0236   24.9810 C.2     1  UNL1        0.0000
    495 C          -8.8428   21.3728   14.3506 C.3     1  UNL1        0.0000
    496 N          -8.7877   20.7740   15.5887 N.3     1  UNL1        0.0000
    497 N          -4.4218    7.6126   23.5929 N.pl3   8  UNL8        0.0000
    498 N          -3.0322   12.0327   20.7161 N.pl3   1  UNL1        0.0000
    499 N          -4.9293    3.2960   22.3631 N.pl3   1  UNL1        0.0000
    500 O          -3.7749   12.3209   18.1490 O.3     1  UNL1        0.0000
    501 O         -14.1987    9.0864   21.0392 O.3     1  UNL1        0.0000
    502 O          -6.9485    4.9534   22.7609 O.3     1  UNL1        0.0000
    503 O         -10.4012   17.4020   16.4512 O.3     1  UNL1        0.0000
    504 O          -9.5649   16.0151   18.0373 O.3     1  UNL1        0.0000
    505 O          -8.5003    5.1974   21.1343 O.3     1  UNL1        0.0000
    506 O          -2.1867   11.9966   16.5715 O.3     1  UNL1        0.0000
    507 O         -15.0097   10.4735   22.6372 O.3     1  UNL1        0.0000
    508 O          -4.8592   11.7417   15.5724 O.3     1  UNL1        0.0000
    509 O         -12.5055    9.6003   23.1375 O.3     1  UNL1        0.0000
    510 O          -3.9204   14.0290   16.0224 O.3     1  UNL1        0.0000
    511 O         -14.2576    7.8756   23.6302 O.3     1  UNL1        0.0000
    512 O          -9.6511    4.6677   23.7249 O.3     1  UNL1        0.0000
    513 O          -7.8827   16.5631   15.9530 O.3     1  UNL1        0.0000
    514 O          -8.6972    6.9292   23.2607 O.3     1  UNL1        0.0000
    515 O          -9.5889   14.8060   15.4356 O.3     1  UNL1        0.0000
    516 O          -7.2799    3.8134   25.0270 O.3     1  UNL1        0.0000
    517 O          -9.0324   18.4867   14.1790 O.2     1  UNL1        0.0000
    518 O          -6.4778    6.6016   25.0219 O.3     1  UNL1        0.0000
    519 O         -11.2684   16.6510   14.1189 O.2     1  UNL1        0.0000
    520 O          -1.7396   13.6762   14.1651 O.3     1  UNL1        0.0000
    521 O         -15.8939    9.7158   24.9529 O.3     1  UNL1        0.0000
    522 O          -2.5351   10.9219   14.1945 O.3     1  UNL1        0.0000
    523 O         -13.6257   11.4981   25.0342 O.3     1  UNL1        0.0000
    524 O          -6.6674   14.1331   16.0735 O.3     1  UNL1        0.0000
    525 O         -11.3694    7.1293   23.0545 O.3     1  UNL1        0.0000
    526 O          -4.2133   12.9080   13.1407 O.3     1  UNL1        0.0000
    527 O          -8.7810   16.0101   12.9740 O.3     1  UNL1        0.0000
    528 H          -7.4145    9.1504   21.7296 H       1  UNL1        0.0000
    529 H         -11.3603    3.2872   19.5742 H       1  UNL1        0.0000
    530 H          -6.2886   18.4741   17.5829 H       9  UNK9        0.0000
    531 H          -6.4228   10.6393   19.9683 H       1  UNL1        0.0000
    532 H         -11.1424   11.2726   21.4258 H       1  UNL1        0.0000
    533 H         -14.7643    5.9033   19.3177 H       1  UNL1        0.0000
    534 H          -9.7630    9.4875   22.4381 H       1  UNL1        0.0000
    535 H         -10.1525   12.7641   19.6580 H       1  UNL1        0.0000
    536 H          -5.0704   16.4498   16.8458 H       9  UNK9        0.0000
    537 H         -18.8825   16.4178   17.7528 H      15  UNK15       0.0000
    538 C          -8.2315   11.7856   19.7039 C.ar    1  UNL1        0.0000
    539 C          -9.3346   10.1279   21.6690 C.ar    1  UNL1        0.0000
    540 C          -4.6435   17.0834   17.6217 C.2     9  UNK9        0.0000
    541 C         -13.0083    4.6774   19.5499 C.2     1  UNL1        0.0000
    542 C          -9.5654   11.9706   20.1158 C.ar    1  UNL1        0.0000
    543 C          -8.0061    9.9385   21.2662 C.ar    1  UNL1        0.0000
    544 C          -5.3301   18.2312   18.0388 C.3     9  UNK9        0.0000
    545 C         -12.3253    3.5205   19.1294 C.3     1  UNL1        0.0000
    546 C          -3.4040   16.7536   18.1841 C.2     9  UNK9        0.0000
    547 C         -14.2572    5.0004   18.9845 C.3     1  UNL1        0.0000
    548 C          -7.4548   10.7647   20.2870 C.ar    1  UNL1        0.0000
    549 C         -10.1132   11.1410   21.0954 C.ar    1  UNL1        0.0000
    550 O          -6.4539   12.4068   18.2495 O.3     1  UNL1        0.0000
    551 O         -13.0731    6.5931   20.9587 O.2     1  UNL1        0.0000
    552 O         -11.2434    5.2773   21.0317 O.2     1  UNL1        0.0000
    553 O          -8.3594   13.6131   18.1880 O.3     1  UNL1        0.0000
    554 N           5.6527   21.2837   44.9003 N.pl3  16  UNL16       0.0000
    555 N           4.2325   22.0429   43.4258 N.pl3  16  UNL16       0.0000
    556 C           5.6397   22.6659   45.0208 C.2    16  UNL16       0.0000
    557 C           4.7520   23.1389   44.0931 C.2    16  UNL16       0.0000
    558 C           3.8710   22.5096   40.9980 C.3    16  UNL16       0.0000
    559 C           6.4026   20.3521   45.7525 C.3    16  UNL16       0.0000
    560 C           4.7932   20.9281   43.9235 C.3    16  UNL16       0.0000
    561 C           3.2414   22.0931   42.3235 C.3    16  UNL16       0.0000
    562 H           6.2661   23.1889   45.7323 H      16  UNL16       0.0000
    563 H           4.4538   24.1480   43.8474 H      16  UNL16       0.0000
    564 H           4.3380   23.5006   41.0779 H      16  UNL16       0.0000
    565 H           7.3833   20.7859   45.9767 H      16  UNL16       0.0000
    566 H           4.6303   21.7893   40.6700 H      16  UNL16       0.0000
    567 H           5.8444   20.1642   46.6781 H      16  UNL16       0.0000
    568 H           3.0868   22.5587   40.2296 H      16  UNL16       0.0000
    569 H           2.4630   22.7968   42.6444 H      16  UNL16       0.0000
    570 H           6.5305   19.4014   45.2245 H      16  UNL16       0.0000
    571 H           4.5823   19.9111   43.6200 H      16  UNL16       0.0000
    572 H           2.7856   21.0969   42.2690 H      16  UNL16       0.0000
    573 TI         13.1440    1.6725   11.3360 Ti      1  UNL1        0.0000
    574 TI         23.9745    4.5537    1.9712 Ti      1  UNL1        0.0000
    575 TI         17.2407   -2.2637    9.5160 Ti      1  UNL1        0.0000
    576 TI         18.7519    6.8984    3.7430 Ti      1  UNL1        0.0000
    577 TI         17.7533    8.5767    1.8386 Ti      1  UNL1        0.0000
    578 TI         19.1289   -2.5180   11.4694 Ti      1  UNL1        0.0000
    579 TI         14.0932   -0.0634    9.4445 Ti      1  UNL1        0.0000
    580 TI         21.9867    4.8563    3.8186 Ti      1  UNL1        0.0000
    581 H          13.6459    5.5696   11.1165 H       1  UNL1        0.0000
    582 H          24.7833    0.6477    2.2918 H       1  UNL1        0.0000
    583 H           9.1841    0.9159   10.9535 H       1  UNL1        0.0000
    584 H          27.3566    6.5580    2.1718 H       1  UNL1        0.0000
    585 H          20.1045   -6.5526   11.0834 H       1  UNL1        0.0000
    586 H          13.6948    7.9868    2.1606 H       1  UNL1        0.0000
    587 H          18.2478    6.9399   -0.0345 H       1  UNL1        0.0000
    588 H          22.0989    4.3110    0.2712 H       1  UNL1        0.0000
    589 H          19.6388   -3.1852    5.9583 H       1  UNL1        0.0000
    590 H          17.0284    8.7355    7.3619 H       1  UNL1        0.0000
    591 H          10.0206    3.3252    9.0886 H       1  UNL1        0.0000
    592 H          26.7292    2.4694    4.2772 H       1  UNL1        0.0000
    593 H          12.3217    1.8778    5.7547 H       1  UNL1        0.0000
    594 H          14.6532   10.4046    4.1918 H       1  UNL1        0.0000
    595 H          18.1455   11.6796    2.6940 H       1  UNL1        0.0000
    596 H          24.6254   -1.3712    3.4943 H      17  UNK17       0.0000
    597 H          20.8445    6.5786    2.4043 H       1  UNL1        0.0000
    598 H          16.1600   -0.4153   10.8096 H       1  UNL1        0.0000
    599 H          23.3636   -0.5832    9.8590 H       1  UNL1        0.0000
    600 H          21.8825   -1.0523   10.6064 H       1  UNL1        0.0000
    601 H          23.9378    3.8504    8.7601 H       1  UNL1        0.0000
    602 H          23.3680    4.2090    7.1416 H       1  UNL1        0.0000
    603 H          22.8748   -5.5380    9.6690 H       1  UNL1        0.0000
    604 H          21.5957   -4.4374   10.1264 H       1  UNL1        0.0000
    605 C          24.5525    3.8125    4.8347 C.2     1  UNL1        0.0000
    606 C          12.1835    1.9339    8.4889 C.3     1  UNL1        0.0000
    607 C          19.8212   -3.2744    8.5913 C.3     1  UNL1        0.0000
    608 C          16.8158    8.8689    4.7023 C.3     1  UNL1        0.0000
    609 C          25.4485    3.2082    5.8299 C.2     1  UNL1        0.0000
    610 C          11.2515    2.5589    7.5119 C.ar    1  UNL1        0.0000
    611 C          20.7614   -3.8888    7.6441 C.2     1  UNL1        0.0000
    612 C          15.9259    9.5157    5.7021 C.ar    1  UNL1        0.0000
    613 C          25.1998    3.2831    7.2363 C.3     1  UNL1        0.0000
    614 C          11.4679    2.4389    6.1239 C.ar    1  UNL1        0.0000
    615 C          21.8908   -4.6491    8.0971 C.2     1  UNL1        0.0000
    616 C          14.8312   10.2887    5.2572 C.ar    1  UNL1        0.0000
    617 C          16.1804    9.3450    7.0570 C.ar    1  UNL1        0.0000
    618 C          20.5137   -3.7566    6.2602 C.3     1  UNL1        0.0000
    619 C          26.5822    2.5092    5.3542 C.3     1  UNL1        0.0000
    620 C          10.1514    3.2513    8.0106 C.ar    1  UNL1        0.0000
    621 C          24.7643    0.7267    0.1477 C.2     1  UNL1        0.0000
    622 C          18.2946   12.5183    0.1728 C.2     1  UNL1        0.0000
    623 C          27.2487    6.4898    0.0217 C.2     1  UNL1        0.0000
    624 C          13.8904    8.0323    0.0024 C.2     1  UNL1        0.0000
    625 C          19.4986    4.5553    5.7075 C.3     1  UNL1        0.0000
    626 C          14.7425   -2.5391    7.6257 C.2     1  UNL1        0.0000
    627 C          24.6284    2.1816    0.1245 C.2     1  UNL1        0.0000
    628 C          18.2018   11.0848    0.1353 C.2     1  UNL1        0.0000
    629 C          25.9509    5.8730    0.0686 C.2     1  UNL1        0.0000
    630 C          15.2927    8.4466    0.0268 C.2     1  UNL1        0.0000
    631 C          24.8036    0.0576    1.3774 C.3     1  UNL1        0.0000
    632 C          13.6568    6.1580   12.0304 C.ar    1  UNL1        0.0000
    633 C          27.9040    6.7646    1.2557 C.3     1  UNL1        0.0000
    634 C           8.6226    0.7365   11.8689 C.ar    1  UNL1        0.0000
    635 C          23.3084   -0.3079   11.8834 C.3     1  UNL1        0.0000
    636 C          13.1932    7.8019    1.2148 C.2     1  UNL1        0.0000
    637 C          20.1461   -7.0797   12.0325 C.3     1  UNL1        0.0000
    638 C          18.3083   13.2695    1.4020 C.2     1  UNL1        0.0000
    639 N          18.3634   12.6707    2.6402 N.pl3   1  UNL1        0.0000
    640 N          22.7293   -0.4907   10.6444 N.3     1  UNL1        0.0000
    641 N          24.1189    3.9293    7.7676 N.3     1  UNL1        0.0000
    642 N          22.2218   -4.8073    9.4145 N.pl3   1  UNL1        0.0000
    643 O          23.3762    4.2176    5.2005 O.2     1  UNL1        0.0000
    644 O          12.9524    0.9830    8.0907 O.3     1  UNL1        0.0000
    645 O          20.2026   -3.1499    9.8124 O.3     1  UNL1        0.0000
    646 O          16.7499    9.2986    3.5027 O.3     1  UNL1        0.0000
    647 O          17.5862    7.9117    5.0888 O.3     1  UNL1        0.0000
    648 O          18.6508   -2.9060    8.1857 O.3     1  UNL1        0.0000
    649 O          24.9644    3.8932    3.6229 O.2     1  UNL1        0.0000
    650 O          12.1414    2.3701    9.6886 O.3     1  UNL1        0.0000
    651 O          22.2919    3.6384    2.6239 O.3     1  UNL1        0.0000
    652 O          14.6457    1.4970   10.1890 O.3     1  UNL1        0.0000
    653 O          23.2307    5.9256    3.0739 O.3     1  UNL1        0.0000
    654 O          12.8935   -0.2277   10.6817 O.3     1  UNL1        0.0000
    655 O          17.5000   -3.4357   10.7764 O.3     1  UNL1        0.0000
    656 O          19.2684    8.4597    3.0045 O.3     1  UNL1        0.0000
    657 O          18.4539   -1.1742   10.3122 O.3     1  UNL1        0.0000
    658 O          17.5622    6.7026    2.4870 O.3     1  UNL1        0.0000
    659 O          19.8712   -4.2899   12.0785 O.2     1  UNL1        0.0000
    660 O          18.1187   10.3834    1.2305 O.2     1  UNL1        0.0000
    661 O          20.6734   -1.5017   12.0733 O.2     1  UNL1        0.0000
    662 O          15.8828    8.5476    1.1704 O.2     1  UNL1        0.0000
    663 O          25.4115    5.5728    1.2166 O.2     1  UNL1        0.0000
    664 O          11.2572    1.6124   12.0044 O.3     1  UNL1        0.0000
    665 O          24.6160    2.8185    1.2460 O.2     1  UNL1        0.0000
    666 O          13.5254    3.3948   12.0857 O.3     1  UNL1        0.0000
    667 O          20.4837    6.0298    3.1250 O.3     1  UNL1        0.0000
    668 O          15.7817   -0.9740   10.1060 O.3     1  UNL1        0.0000
    669 O          22.9378    4.8047    0.1922 O.3     1  UNL1        0.0000
    670 O          18.3701    7.9067    0.0255 O.3     1  UNL1        0.0000
    671 H          19.7366    1.0470    8.7811 H       1  UNL1        0.0000
    672 H          15.7908   -4.8161    6.6257 H       1  UNL1        0.0000
    673 H          20.8625   10.3708    4.6343 H      10  UNL10       0.0000
    674 H          20.7283    2.5359    7.0198 H       1  UNL1        0.0000
    675 H          16.0087    3.1692    8.4773 H       1  UNL1        0.0000
    676 H          12.3868   -2.2001    6.3692 H       1  UNL1        0.0000
    677 H          17.3882    1.3842    9.4896 H       1  UNL1        0.0000
    678 H          16.9986    4.6607    6.7095 H       1  UNL1        0.0000
    679 H          22.0808    8.3465    3.8973 H      10  UNL10       0.0000
    680 H           8.2686    8.3145    4.8043 H       1  UNL1        0.0000
    681 C          18.9197    3.6823    6.7554 C.ar    1  UNL1        0.0000
    682 C          17.8165    2.0246    8.7204 C.ar    1  UNL1        0.0000
    683 C          22.5076    8.9801    4.6732 C.2    10  UNL10       0.0000
    684 C          14.1428   -3.4259    6.6014 C.2     1  UNL1        0.0000
    685 C          17.5857    3.8673    7.1673 C.ar    1  UNL1        0.0000
    686 C          19.1450    1.8352    8.3177 C.ar    1  UNL1        0.0000
    687 C          21.8210   10.1279    5.0903 C.2    10  UNL10       0.0000
    688 C          14.8259   -4.5829    6.1809 C.3     1  UNL1        0.0000
    689 C          23.7471    8.6502    5.2356 C.3    10  UNL10       0.0000
    690 C          12.8939   -3.1030    6.0360 C.3     1  UNL1        0.0000
    691 C          19.6963    2.6614    7.3385 C.ar    1  UNL1        0.0000
    692 C          17.0380    3.0377    8.1469 C.ar    1  UNL1        0.0000
    693 O          20.6972    4.3035    5.3010 O.3     1  UNL1        0.0000
    694 O          14.0780   -1.5103    8.0102 O.2     1  UNL1        0.0000
    695 O          15.9078   -2.8261    8.0831 O.2     1  UNL1        0.0000
    696 O          18.7917    5.5097    5.2395 O.3     1  UNL1        0.0000
    697 N          32.8038   13.1803   31.9518 N.pl3  18  UNL18       0.0000
    698 N          31.3836   13.9395   30.4772 N.pl3  18  UNL18       0.0000
    699 C          32.7908   14.5626   32.0723 C.2    18  UNL18       0.0000
    700 C          31.9031   15.0356   31.1446 C.2    18  UNL18       0.0000
    701 C          31.0221   14.4063   28.0495 C.3    18  UNL18       0.0000
    702 C          33.5538   12.2487   32.8040 C.3    18  UNL18       0.0000
    703 C          31.9443   12.8248   30.9750 C.3    18  UNL18       0.0000
    704 C          30.3925   13.9897   29.3750 C.3    18  UNL18       0.0000
    705 H          33.4172   15.0855   32.7838 H      18  UNL18       0.0000
    706 H          31.6049   16.0447   30.8989 H      18  UNL18       0.0000
    707 H          31.4891   15.3972   28.1294 H      18  UNL18       0.0000
    708 H          34.5344   12.6826   33.0282 H      18  UNL18       0.0000
    709 H          31.7814   13.6860   27.7215 H      18  UNL18       0.0000
    710 H          32.9955   12.0608   33.7296 H      18  UNL18       0.0000
    711 H          30.2379   14.4554   27.2811 H      18  UNL18       0.0000
    712 H          29.6141   14.6935   29.6959 H      18  UNL18       0.0000
    713 H          33.6816   11.2981   32.2760 H      18  UNL18       0.0000
    714 H          31.7334   11.8078   30.6715 H      18  UNL18       0.0000
    715 H          29.9368   12.9936   29.3205 H      18  UNL18       0.0000
    716 TI          8.5094   -5.3939   24.4306 Ti      1  UNL1        0.0000
    717 TI         19.3398   -2.5127   15.0658 Ti      1  UNL1        0.0000
    718 TI         12.6060   -9.3301   22.6106 Ti      1  UNL1        0.0000
    719 TI         14.1172   -0.1680   16.8376 Ti      1  UNL1        0.0000
    720 TI         13.1187    1.5103   14.9332 Ti      1  UNL1        0.0000
    721 TI         14.4942   -9.5845   24.5640 Ti      1  UNL1        0.0000
    722 TI          9.4585   -7.1298   22.5391 Ti      1  UNL1        0.0000
    723 TI         17.3520   -2.2102   16.9132 Ti      1  UNL1        0.0000
    724 H           9.0112   -1.4969   24.2111 H      11  UNK11       0.0000
    725 H          20.1486   -6.4188   15.3865 H       1  UNL1        0.0000
    726 H           4.5495   -6.1506   24.0481 H       3  UNK3        0.0000
    727 H          22.7220   -0.5084   15.2664 H       1  UNL1        0.0000
    728 H          15.4698  -13.6190   24.1780 H      13  UNL13       0.0000
    729 H           9.0601    0.9204   15.2552 H       1  UNL1        0.0000
    730 H          13.6131   -0.1265   13.0601 H       1  UNL1        0.0000
    731 H          17.4643   -2.7554   13.3658 H       1  UNL1        0.0000
    732 H          15.0041  -10.2516   19.0529 H       1  UNL1        0.0000
    733 H          12.3938    1.6690   20.4565 H       1  UNL1        0.0000
    734 H           5.3859   -3.7412   22.1832 H       1  UNL1        0.0000
    735 H          22.0946   -4.5971   17.3718 H       1  UNL1        0.0000
    736 H           7.6870   -5.1886   18.8494 H       1  UNL1        0.0000
    737 H          10.0186    3.3382   17.2864 H       1  UNL1        0.0000
    738 H          13.5109    4.6131   15.7886 H       1  UNL1        0.0000
    739 H          19.9908   -8.4376   16.5889 H      19  UNK19       0.0000
    740 H          16.2099   -0.4879   15.4989 H       1  UNL1        0.0000
    741 H          11.5253   -7.4817   23.9042 H       1  UNL1        0.0000
    742 H          18.7290   -7.6496   22.9536 H      12  UNL12       0.0000
    743 H          17.2479   -8.1187   23.7010 H      12  UNL12       0.0000
    744 H          19.3031   -3.2160   21.8547 H       1  UNL1        0.0000
    745 H          18.7334   -2.8574   20.2362 H       1  UNL1        0.0000
    746 H          18.2402  -12.6045   22.7636 H       1  UNL1        0.0000
    747 H          16.9610  -11.5039   23.2210 H       1  UNL1        0.0000
    748 C          19.9179   -3.2540   17.9293 C.2     1  UNL1        0.0000
    749 C           7.5488   -5.1326   21.5835 C.3     1  UNL1        0.0000
    750 C          15.1865  -10.3408   21.6859 C.3     1  UNL1        0.0000
    751 C          12.1811    1.8025   17.7969 C.3     1  UNL1        0.0000
    752 C          20.8139   -3.8583   18.9245 C.2     1  UNL1        0.0000
    753 C           6.6169   -4.5075   20.6065 C.ar    1  UNL1        0.0000
    754 C          16.1267  -10.9552   20.7387 C.2     1  UNL1        0.0000
    755 C          11.2913    2.4493   18.7967 C.ar    1  UNL1        0.0000
    756 C          20.5651   -3.7834   20.3309 C.3     1  UNL1        0.0000
    757 C           6.8333   -4.6275   19.2185 C.ar    1  UNL1        0.0000
    758 C          17.2562  -11.7155   21.1917 C.2     1  UNL1        0.0000
    759 C          10.1966    3.2223   18.3518 C.ar    1  UNL1        0.0000
    760 C          11.5458    2.2785   20.1516 C.ar    1  UNL1        0.0000
    761 C          15.8790  -10.8231   19.3548 C.3     1  UNL1        0.0000
    762 C          21.9476   -4.5573   18.4488 C.3     1  UNL1        0.0000
    763 C           5.5167   -3.8151   21.1052 C.ar    1  UNL1        0.0000
    764 C          20.1296   -6.3397   13.2424 C.2     1  UNL1        0.0000
    765 C          13.6599    5.4519   13.2674 C.ar    1  UNL1        0.0000
    766 C          22.6141   -0.5766   13.1164 C.2     1  UNL1        0.0000
    767 C           9.2557    0.9658   13.0970 C.ar    1  UNL1        0.0000
    768 C          14.8639   -2.5112   18.8022 C.3     1  UNL1        0.0000
    769 C          10.1079   -9.6056   20.7203 C.2     1  UNL1        0.0000
    770 C          19.9938   -4.8849   13.2192 C.2     1  UNL1        0.0000
    771 C          13.5672    4.0184   13.2299 C.3     1  UNL1        0.0000
    772 C          21.3162   -1.1934   13.1632 C.2     1  UNL1        0.0000
    773 C          10.6580    1.3802   13.1214 C.3     1  UNL1        0.0000
    774 C          20.1690   -7.0088   14.4720 C.3     1  UNL1        0.0000
    775 C           9.0222   -0.9085   25.1250 C.2    11  UNK11       0.0000
    776 C          23.2694   -0.3018   14.3503 C.3     1  UNL1        0.0000
    777 C           3.9880   -6.3299   24.9635 C.2     3  UNK3        0.0000
    778 C          18.6737   -7.3743   24.9780 C.3    12  UNL12       0.0000
    779 C           8.5585    0.7354   14.3094 C.ar    1  UNL1        0.0000
    780 C          15.5115  -14.1462   25.1271 C.3    20  UNL20       0.0000
    781 C          13.6737    6.2031   14.4966 C.ar    1  UNL1        0.0000
    782 N          13.7287    5.6042   15.7348 N.pl3   1  UNL1        0.0000
    783 N          18.0947   -7.5571   23.7390 N.3    12  UNL12       0.0000
    784 N          19.4842   -3.1371   20.8622 N.3     1  UNL1        0.0000
    785 N          17.5872  -11.8737   22.5091 N.pl3   1  UNL1        0.0000
    786 O          18.7415   -2.8489   18.2951 O.2     1  UNL1        0.0000
    787 O           8.3178   -6.0834   21.1853 O.3     1  UNL1        0.0000
    788 O          15.5680  -10.2164   22.9070 O.3     1  UNL1        0.0000
    789 O          12.1152    2.2322   16.5973 O.3     1  UNL1        0.0000
    790 O          12.9516    0.8453   18.1834 O.3     1  UNL1        0.0000
    791 O          14.0161   -9.9724   21.2804 O.3     1  UNL1        0.0000
    792 O          20.3297   -3.1732   16.7175 O.2     1  UNL1        0.0000
    793 O           7.5068   -4.6963   22.7833 O.3     1  UNL1        0.0000
    794 O          17.6572   -3.4281   15.7185 O.3     1  UNL1        0.0000
    795 O          10.0110   -5.5695   23.2836 O.3     1  UNL1        0.0000
    796 O          18.5960   -1.1408   16.1685 O.3     1  UNL1        0.0000
    797 O           8.2588   -7.2942   23.7763 O.3     1  UNL1        0.0000
    798 O          12.8653  -10.5021   23.8710 O.3     1  UNL1        0.0000
    799 O          14.6338    1.3933   16.0991 O.3     1  UNL1        0.0000
    800 O          13.8193   -8.2406   23.4068 O.3     1  UNL1        0.0000
    801 O          12.9275   -0.3638   15.5817 O.3     1  UNL1        0.0000
    802 O          15.2366  -11.3563   25.1731 O.3     1  UNL1        0.0000
    803 O          13.4840    3.3169   14.3251 O.3     1  UNL1        0.0000
    804 O          16.0387   -8.5682   25.1679 O.3     1  UNL1        0.0000
    805 O          11.2481    1.4812   14.2650 O.3     1  UNL1        0.0000
    806 O          20.7769   -1.4936   14.3112 O.2     1  UNL1        0.0000
    807 O           6.6226   -5.4540   25.0990 O.3     1  UNL1        0.0000
    808 O          19.9813   -4.2479   14.3406 O.2     1  UNL1        0.0000
    809 O           8.8908   -3.6716   25.1803 O.3     1  UNL1        0.0000
    810 O          15.8490   -1.0366   16.2196 O.3     1  UNL1        0.0000
    811 O          11.1471   -8.0404   23.2006 O.3     1  UNL1        0.0000
    812 O          18.3031   -2.2617   13.2868 O.3     1  UNL1        0.0000
    813 O          13.7355    0.8403   13.1201 O.3     1  UNL1        0.0000
    814 H          15.1020   -6.0194   21.8757 H       1  UNL1        0.0000
    815 H          11.1562  -11.8825   19.7203 H       1  UNL1        0.0000
    816 H          16.2279    3.3044   17.7289 H      14  UNL14       0.0000
    817 H          16.0936   -4.5305   20.1144 H       1  UNL1        0.0000
    818 H          11.3741   -3.8972   21.5719 H       1  UNL1        0.0000
    819 H           7.7522   -9.2665   19.4638 H       1  UNL1        0.0000
    820 H          12.7535   -5.6822   22.5842 H       1  UNL1        0.0000
    821 H          12.3639   -2.4057   19.8041 H       1  UNL1        0.0000
    822 H          17.4461    1.2801   16.9919 H      14  UNL14       0.0000
    823 H           3.6339    1.2480   17.8989 H       1  UNL1        0.0000
    824 C          14.2850   -3.3841   19.8500 C.ar    1  UNL1        0.0000
    825 C          13.1818   -5.0418   21.8150 C.ar    1  UNL1        0.0000
    826 C          17.8729    1.9136   17.7678 C.2    14  UNL14       0.0000
    827 C           9.5082  -10.4924   19.6960 C.2     1  UNL1        0.0000
    828 C          12.9510   -3.1991   20.2619 C.ar    1  UNL1        0.0000
    829 C          14.5104   -5.2313   21.4123 C.ar    1  UNL1        0.0000
    830 C          17.1864    3.0614   18.1849 C.2    14  UNL14       0.0000
    831 C          10.1912  -11.6493   19.2755 C.3     1  UNL1        0.0000
    832 C          19.1125    1.5838   18.3302 C.3    14  UNL14       0.0000
    833 C           8.2592  -10.1694   19.1306 C.3     1  UNL1        0.0000
    834 C          15.0616   -4.4051   20.4331 C.ar    1  UNL1        0.0000
    835 C          12.4033   -4.0288   21.2415 C.ar    1  UNL1        0.0000
    836 O          16.0625   -2.7629   18.3956 O.3     1  UNL1        0.0000
    837 O           9.4434   -8.5767   21.1048 O.2     1  UNL1        0.0000
    838 O          11.2731   -9.8925   21.1778 O.2     1  UNL1        0.0000
    839 O          14.1570   -1.5567   18.3341 O.3     1  UNL1        0.0000
    840 N          28.1692    6.1139   45.0464 N.pl3  21  UNL21       0.0000
    841 N          26.7489    6.8731   43.5719 N.pl3  21  UNL21       0.0000
    842 C          28.1562    7.4962   45.1669 C.2    21  UNL21       0.0000
    843 C          27.2684    7.9692   44.2392 C.2    21  UNL21       0.0000
    844 C          26.3875    7.3398   41.1441 C.3    21  UNL21       0.0000
    845 C          28.9191    5.1823   45.8986 C.3    21  UNL21       0.0000
    846 C          27.3096    5.7583   44.0696 C.3    21  UNL21       0.0000
    847 C          25.7578    6.9233   42.4696 C.3    21  UNL21       0.0000
    848 H          28.7825    8.0191   45.8784 H      21  UNL21       0.0000
    849 H          26.9702    8.9783   43.9935 H      21  UNL21       0.0000
    850 H          26.8545    8.3308   41.2240 H      21  UNL21       0.0000
    851 H          29.8998    5.6161   46.1228 H      21  UNL21       0.0000
    852 H          27.1468    6.6195   40.8161 H      21  UNL21       0.0000
    853 H          28.3609    4.9944   46.8242 H      21  UNL21       0.0000
    854 H          25.6033    7.3889   40.3757 H      21  UNL21       0.0000
    855 H          24.9795    7.6271   42.7905 H      21  UNL21       0.0000
    856 H          29.0469    4.2317   45.3706 H      21  UNL21       0.0000
    857 H          27.0988    4.7413   43.7661 H      21  UNL21       0.0000
    858 H          25.3021    5.9271   42.4151 H      21  UNL21       0.0000
    859 TI          6.6270   16.2850   11.2794 Ti      1  UNL1        0.0000
    860 TI         17.4574   19.1662    1.9146 Ti      1  UNL1        0.0000
    861 TI         10.7237   12.3488    9.4595 Ti      1  UNL1        0.0000
    862 TI         12.2348   21.5109    3.6864 Ti      1  UNL1        0.0000
    863 TI         11.2363   23.1893    1.7820 Ti      1  UNL1        0.0000
    864 TI         12.6119   12.0945   11.4128 Ti      1  UNL1        0.0000
    865 TI          7.5762   14.5491    9.3880 Ti      1  UNL1        0.0000
    866 TI         15.4696   19.4688    3.7621 Ti      1  UNL1        0.0000
    867 H           7.1288   20.1821   11.0600 H       1  UNL1        0.0000
    868 H          18.2662   15.2602    2.2353 H       1  UNL1        0.0000
    869 H           2.6671   15.5284   10.8970 H       1  UNL1        0.0000
    870 H          20.8396   21.1705    2.1153 H       1  UNL1        0.0000
    871 H          13.5875    8.0599   11.0269 H       1  UNL1        0.0000
    872 H           7.1778   22.5994    2.1041 H       1  UNL1        0.0000
    873 H          11.7307   21.5524   -0.0910 H       1  UNL1        0.0000
    874 H          15.5819   18.9235    0.2147 H       1  UNL1        0.0000
    875 H          13.1218   11.4274    5.9017 H       1  UNL1        0.0000
    876 H          10.5114   23.3480    7.3054 H       1  UNL1        0.0000
    877 H           3.5036   17.9377    9.0321 H       1  UNL1        0.0000
    878 H          20.2122   17.0819    4.2206 H       1  UNL1        0.0000
    879 H           5.8047   16.4903    5.6982 H       1  UNL1        0.0000
    880 H           8.1362   25.0171    4.1353 H       1  UNL1        0.0000
    881 H          11.6285   26.2921    2.6375 H       1  UNL1        0.0000
    882 H          18.1084   13.2413    3.4378 H       1  UNL1        0.0000
    883 H          14.3275   21.1911    2.3478 H       1  UNL1        0.0000
    884 H           9.6430   14.1972   10.7531 H       1  UNL1        0.0000
    885 H          16.8466   14.0293    9.8025 H       1  UNL1        0.0000
    886 H          15.3655   13.5603   10.5498 H       1  UNL1        0.0000
    887 H          17.4207   18.4630    8.7036 H       1  UNL1        0.0000
    888 H          16.8510   18.8215    7.0851 H       1  UNL1        0.0000
    889 H          16.3578    9.0745    9.6125 H       1  UNL1        0.0000
    890 H          15.0786   10.1751   10.0699 H       1  UNL1        0.0000
    891 C          18.0355   18.4250    4.7782 C.2     1  UNL1        0.0000
    892 C           5.6664   16.5464    8.4324 C.3     1  UNL1        0.0000
    893 C          13.3042   11.3381    8.5347 C.3     1  UNL1        0.0000
    894 C          10.2987   23.4815    4.6458 C.3     1  UNL1        0.0000
    895 C          18.9315   17.8207    5.7734 C.2     1  UNL1        0.0000
    896 C           4.7345   17.1714    7.4554 C.ar    1  UNL1        0.0000
    897 C          14.2444   10.7238    7.5876 C.ar    1  UNL1        0.0000
    898 C           9.4089   24.1283    5.6456 C.2     1  UNL1        0.0000
    899 C          18.6827   17.8956    7.1798 C.3     1  UNL1        0.0000
    900 C           4.9509   17.0514    6.0673 C.ar    1  UNL1        0.0000
    901 C          15.3738    9.9635    8.0406 C.ar    1  UNL1        0.0000
    902 C           8.3142   24.9012    5.2007 C.3     1  UNL1        0.0000
    903 C           9.6634   23.9575    7.0005 C.2     1  UNL1        0.0000
    904 C          13.9967   10.8559    6.2036 C.ar    1  UNL1        0.0000
    905 C          20.0652   17.1217    5.2977 C.3     1  UNL1        0.0000
    906 C           3.6344   17.8638    7.9541 C.ar    1  UNL1        0.0000
    907 C          18.2473   15.3392    0.0912 C.2     1  UNL1        0.0000
    908 C          11.7775   27.1308    0.1162 C.2     1  UNL1        0.0000
    909 C          20.7317   21.1024   -0.0348 C.2     1  UNL1        0.0000
    910 C           7.3734   22.6448   -0.0542 C.2     1  UNL1        0.0000
    911 C          12.9816   19.1678    5.6510 C.3     1  UNL1        0.0000
    912 C           8.2255   12.0734    7.5692 C.3     1  UNL1        0.0000
    913 C          18.1114   16.7941    0.0680 C.2     1  UNL1        0.0000
    914 C          11.6848   25.6973    0.0787 C.2     1  UNL1        0.0000
    915 C          19.4339   20.4855    0.0121 C.2     1  UNL1        0.0000
    916 C           8.7757   23.0591   -0.0297 C.2     1  UNL1        0.0000
    917 C          18.2866   14.6701    1.3209 C.2     1  UNL1        0.0000
    918 C           7.1398   20.7705   11.9739 C.3     1  UNL1        0.0000
    919 C          21.3870   21.3772    1.1992 C.3     1  UNL1        0.0000
    920 C           2.1056   15.3490   11.8124 C.ar    1  UNL1        0.0000
    921 C          16.7913   14.3046   11.8268 C.3     1  UNL1        0.0000
    922 C           6.6762   22.4144    1.1583 C.2     1  UNL1        0.0000
    923 C          13.6291    7.5328   11.9760 C.ar    1  UNL1        0.0000
    924 C          11.7913   27.8820    1.3455 C.3     1  UNL1        0.0000
    925 N          11.8464   27.2832    2.5837 N.3     1  UNL1        0.0000
    926 N          16.2123   14.1218   10.5879 N.3     1  UNL1        0.0000
    927 N          17.6019   18.5418    7.7111 N.3     1  UNL1        0.0000
    928 N          15.7048    9.8052    9.3580 N.pl3   1  UNL1        0.0000
    929 O          16.8592   18.8301    5.1440 O.2     1  UNL1        0.0000
    930 O           6.4354   15.5955    8.0341 O.3     1  UNL1        0.0000
    931 O          13.6856   11.4626    9.7559 O.3     1  UNL1        0.0000
    932 O          10.2329   23.9111    3.4462 O.3     1  UNL1        0.0000
    933 O          11.0692   22.5242    5.0323 O.3     1  UNL1        0.0000
    934 O          12.1337   11.7065    8.1292 O.3     1  UNL1        0.0000
    935 O          18.4474   18.5057    3.5664 O.2     1  UNL1        0.0000
    936 O           5.6244   16.9826    9.6321 O.3     1  UNL1        0.0000
    937 O          15.7749   18.2509    2.5674 O.3     1  UNL1        0.0000
    938 O           8.1286   16.1095   10.1325 O.3     1  UNL1        0.0000
    939 O          16.7136   20.5382    3.0174 O.3     1  UNL1        0.0000
    940 O           6.3765   14.3848   10.6252 O.3     1  UNL1        0.0000
    941 O          10.9830   11.1768   10.7199 O.3     1  UNL1        0.0000
    942 O          12.7514   23.0723    2.9480 O.3     1  UNL1        0.0000
    943 O          11.9369   13.4383   10.2557 O.3     1  UNL1        0.0000
    944 O          11.0452   21.3151    2.4305 O.3     1  UNL1        0.0000
    945 O          13.3542   10.3226   12.0219 O.3     1  UNL1        0.0000
    946 O          11.6017   24.9959    1.1739 O.2     1  UNL1        0.0000
    947 O          14.1563   13.1108   12.0168 O.2     1  UNL1        0.0000
    948 O           9.3657   23.1601    1.1139 O.2     1  UNL1        0.0000
    949 O          18.8945   20.1853    1.1601 O.2     1  UNL1        0.0000
    950 O           4.7402   16.2250   11.9479 O.3     1  UNL1        0.0000
    951 O          18.0990   17.4310    1.1895 O.2     1  UNL1        0.0000
    952 O           7.0084   18.0073   12.0292 O.2     1  UNL1        0.0000
    953 O          13.9666   20.6423    3.0685 O.3     1  UNL1        0.0000
    954 O           9.2647   13.6385   10.0495 O.3     1  UNL1        0.0000
    955 O          16.4207   19.4172    0.1357 O.3     1  UNL1        0.0000
    956 O          11.8531   22.5192   -0.0311 O.3     1  UNL1        0.0000
    957 H          13.2196   15.6595    8.7246 H       1  UNL1        0.0000
    958 H           9.2738    9.7964    6.5692 H       1  UNL1        0.0000
    959 H          14.3455   24.9833    4.5778 H      15  UNK15       0.0000
    960 H          14.2112   17.1484    6.9633 H       1  UNL1        0.0000
    961 H           9.4917   17.7818    8.4207 H       1  UNL1        0.0000
    962 H           5.8698   12.4125    6.3127 H       1  UNL1        0.0000
    963 H          10.8711   15.9967    9.4331 H       1  UNL1        0.0000
    964 H          10.4816   19.2732    6.6530 H       1  UNL1        0.0000
    965 H          15.5637   22.9590    3.8408 H      15  UNK15       0.0000
    966 H           1.7515   22.9270    4.7478 H       5  UNL5        0.0000
    967 C          12.4026   18.2948    6.6989 C.ar    1  UNL1        0.0000
    968 C          11.2995   16.6371    8.6639 C.ar    1  UNL1        0.0000
    969 C          15.9905   23.5926    4.6167 C.2    15  UNK15       0.0000
    970 C           7.6258   11.1866    6.5449 C.ar    1  UNL1        0.0000
    971 C          11.0686   18.4798    7.1107 C.ar    1  UNL1        0.0000
    972 C          12.6280   16.4477    8.2612 C.ar    1  UNL1        0.0000
    973 C          15.3040   24.7404    5.0338 C.2    15  UNK15       0.0000
    974 C           8.3088   10.0296    6.1243 C.ar    1  UNL1        0.0000
    975 C          17.2301   23.2627    5.1790 C.3    15  UNK15       0.0000
    976 C           6.3768   11.5096    5.9795 C.ar    1  UNL1        0.0000
    977 C          13.1792   17.2739    7.2820 C.ar    1  UNL1        0.0000
    978 C          10.5209   17.6502    8.0904 C.ar    1  UNL1        0.0000
    979 O          14.1802   18.9160    5.2444 O.3     1  UNL1        0.0000
    980 O           7.5610   13.1022    7.9537 O.3     1  UNL1        0.0000
    981 O           9.3907   11.7864    8.0266 O.3     1  UNL1        0.0000
    982 O          12.2746   20.1223    5.1830 O.3     1  UNL1        0.0000
    983 N          26.2868   27.7928   31.8953 N.pl3  22  UNL22       0.0000
    984 N          24.8666   28.5520   30.4207 N.pl3  22  UNL22       0.0000
    985 C          26.2738   29.1751   32.0158 C.2    22  UNL22       0.0000
    986 C          25.3861   29.6481   31.0881 C.2    22  UNL22       0.0000
    987 C          24.5051   29.0188   27.9929 C.3    22  UNL22       0.0000
    988 C          27.0367   26.8612   32.7475 C.3    22  UNL22       0.0000
    989 C          25.4273   27.4373   30.9184 C.3    22  UNL22       0.0000
    990 C          23.8755   28.6023   29.3185 C.3    22  UNL22       0.0000
    991 H          26.9002   29.6980   32.7273 H      22  UNL22       0.0000
    992 H          25.0878   30.6572   30.8423 H      22  UNL22       0.0000
    993 H          24.9721   30.0097   28.0728 H      22  UNL22       0.0000
    994 H          28.0174   27.2951   32.9717 H      22  UNL22       0.0000
    995 H          25.2644   28.2985   27.6650 H      22  UNL22       0.0000
    996 H          26.4785   26.6733   33.6731 H      22  UNL22       0.0000
    997 H          23.7209   29.0679   27.2246 H      22  UNL22       0.0000
    998 H          23.0971   29.3060   29.6393 H      22  UNL22       0.0000
    999 H          27.1646   25.9106   32.2194 H      22  UNL22       0.0000
   1000 H          25.2164   26.4203   30.6150 H      22  UNL22       0.0000
   1001 H          23.4197   27.6061   29.2640 H      22  UNL22       0.0000
   1002 TI          1.9923    9.2186   24.3741 Ti      1  UNL1        0.0000
   1003 TI         12.8228   12.0998   15.0092 Ti      1  UNL1        0.0000
   1004 TI          6.0890    5.2824   22.5541 Ti      1  UNL1        0.0000
   1005 TI          7.6002   14.4445   16.7810 Ti      1  UNL1        0.0000
   1006 TI          6.6016   16.1228   14.8767 Ti      1  UNL1        0.0000
   1007 TI          7.9772    5.0280   24.5074 Ti      1  UNL1        0.0000
   1008 TI          2.9415    7.4827   22.4826 Ti      1  UNL1        0.0000
   1009 TI         10.8350   12.4023   16.8567 Ti      1  UNL1        0.0000
   1010 H           2.4942   13.1157   24.1546 H      16  UNL16       0.0000
   1011 H          13.6316    8.1937   15.3299 H       1  UNL1        0.0000
   1012 H          -1.9676    8.4619   23.9916 H       8  UNL8        0.0000
   1013 H          16.2049   14.1041   15.2099 H       1  UNL1        0.0000
   1014 H           8.9528    0.9935   24.1215 H      11  UNK11       0.0000
   1015 H           2.5431   15.5329   15.1987 H       1  UNL1        0.0000
   1016 H           7.0961   14.4860   13.0036 H       1  UNL1        0.0000
   1017 H          10.9473   11.8571   13.3093 H       1  UNL1        0.0000
   1018 H           8.4871    4.3609   18.9963 H       1  UNL1        0.0000
   1019 H           5.8768   16.2815   20.4000 H       1  UNL1        0.0000
   1020 H          -1.1311   10.8713   22.1267 H       1  UNL1        0.0000
   1021 H          15.5776   10.0155   17.3152 H       1  UNL1        0.0000
   1022 H           1.1700    9.4239   18.7928 H       1  UNL1        0.0000
   1023 H           3.5016   17.9507   17.2299 H       1  UNL1        0.0000
   1024 H           6.9939   19.2256   15.7321 H       1  UNL1        0.0000
   1025 H          13.4737    6.1749   16.5324 H       1  UNL1        0.0000
   1026 H           9.6928   14.1246   15.4424 H       1  UNL1        0.0000
   1027 H           5.0083    7.1308   23.8477 H       1  UNL1        0.0000
   1028 H          12.2120    6.9629   22.8971 H      17  UNK17       0.0000
   1029 H          10.7308    6.4938   23.6444 H      17  UNK17       0.0000
   1030 H          12.7861   11.3965   21.7982 H       1  UNL1        0.0000
   1031 H          12.2164   11.7551   20.1797 H       1  UNL1        0.0000
   1032 H          11.7231    2.0081   22.7071 H       1  UNL1        0.0000
   1033 H          10.4440    3.1086   23.1645 H       1  UNL1        0.0000
   1034 C          13.4008   11.3585   17.8728 C.2     1  UNL1        0.0000
   1035 C           1.0318    9.4800   21.5270 C.3     1  UNL1        0.0000
   1036 C           8.6695    4.2717   21.6294 C.3     1  UNL1        0.0000
   1037 C           5.6641   16.4150   17.7404 C.3     1  UNL1        0.0000
   1038 C          14.2969   10.7542   18.8680 C.2     1  UNL1        0.0000
   1039 C           0.0999   10.1050   20.5500 C.ar    1  UNL1        0.0000
   1040 C           9.6097    3.6573   20.6822 C.ar    1  UNL1        0.0000
   1041 C           4.7743   17.0618   18.7402 C.2     1  UNL1        0.0000
   1042 C          14.0481   10.8291   20.2744 C.3     1  UNL1        0.0000
   1043 C           0.3163    9.9850   19.1620 C.ar    1  UNL1        0.0000
   1044 C          10.7392    2.8970   21.1352 C.ar    1  UNL1        0.0000
   1045 C           3.6795   17.8348   18.2953 C.3     1  UNL1        0.0000
   1046 C           5.0288   16.8911   20.0951 C.2     1  UNL1        0.0000
   1047 C           9.3620    3.7895   19.2982 C.ar    1  UNL1        0.0000
   1048 C          15.4305   10.0552   18.3923 C.3     1  UNL1        0.0000
   1049 C          -1.0003   10.7974   21.0487 C.ar    1  UNL1        0.0000
   1050 C          13.6126    8.2728   13.1858 C.ar    1  UNL1        0.0000
   1051 C           7.1429   20.0644   13.2108 C.2     1  UNL1        0.0000
   1052 C          16.0970   14.0359   13.0598 C.2     1  UNL1        0.0000
   1053 C           2.7387   15.5784   13.0404 C.ar    1  UNL1        0.0000
   1054 C           8.3469   12.1013   18.7456 C.3     1  UNL1        0.0000
   1055 C           3.5908    5.0070   20.6638 C.3     1  UNL1        0.0000
   1056 C          13.4768    9.7277   13.1626 C.3     1  UNL1        0.0000
   1057 C           7.0501   18.6309   13.1734 C.2     1  UNL1        0.0000
   1058 C          14.7992   13.4191   13.1067 C.2     1  UNL1        0.0000
   1059 C           4.1410   15.9927   13.0649 C.3     1  UNL1        0.0000
   1060 C          13.6520    7.6037   14.4155 C.ar    1  UNL1        0.0000
   1061 C           2.5051   13.7041   25.0685 C.3    23  UNL23       0.0000
   1062 C          16.7523   14.3107   14.2938 C.3     1  UNL1        0.0000
   1063 C          -2.5291    8.2826   24.9070 C.2     8  UNL8        0.0000
   1064 C          12.1567    7.2382   24.9215 C.3    17  UNK17       0.0000
   1065 C           2.0415   15.3479   14.2529 C.ar    1  UNL1        0.0000
   1066 C           8.9945    0.4663   25.0706 C.2    11  UNK11       0.0000
   1067 C           7.1567   20.8156   14.4401 C.3     1  UNL1        0.0000
   1068 N           7.2117   20.2167   15.6783 N.3     1  UNL1        0.0000
   1069 N          11.5777    7.0554   23.6825 N.3    17  UNK17       0.0000
   1070 N          12.9672   11.4754   20.8057 N.3     1  UNL1        0.0000
   1071 N          11.0702    2.7388   22.4526 N.pl3   1  UNL1        0.0000
   1072 O          12.2245   11.7636   18.2386 O.2     1  UNL1        0.0000
   1073 O           1.8008    8.5291   21.1287 O.3     1  UNL1        0.0000
   1074 O           9.0510    4.3962   22.8505 O.3     1  UNL1        0.0000
   1075 O           5.5982   16.8447   16.5408 O.3     1  UNL1        0.0000
   1076 O           6.4345   15.4578   18.1269 O.3     1  UNL1        0.0000
   1077 O           7.4991    4.6401   21.2238 O.3     1  UNL1        0.0000
   1078 O          13.8127   11.4393   16.6610 O.2     1  UNL1        0.0000
   1079 O           0.9898    9.9162   22.7267 O.3     1  UNL1        0.0000
   1080 O          11.1402   11.1844   15.6620 O.3     1  UNL1        0.0000
   1081 O           3.4940    9.0430   23.2271 O.3     1  UNL1        0.0000
   1082 O          12.0790   13.4717   16.1120 O.3     1  UNL1        0.0000
   1083 O           1.7418    7.3184   23.7198 O.3     1  UNL1        0.0000
   1084 O           6.3483    4.1104   23.8145 O.3     1  UNL1        0.0000
   1085 O           8.1168   16.0058   16.0426 O.3     1  UNL1        0.0000
   1086 O           7.3023    6.3719   23.3503 O.3     1  UNL1        0.0000
   1087 O           6.4105   14.2487   15.5251 O.3     1  UNL1        0.0000
   1088 O           8.7195    3.2562   25.1166 O.3     1  UNL1        0.0000
   1089 O           6.9670   17.9294   14.2686 O.2     1  UNL1        0.0000
   1090 O           9.5217    6.0444   25.1114 O.3     1  UNL1        0.0000
   1091 O           4.7311   16.0937   14.2085 O.3     1  UNL1        0.0000
   1092 O          14.2599   13.1189   14.2547 O.2     1  UNL1        0.0000
   1093 O           0.1055    9.1585   25.0425 O.3     1  UNL1        0.0000
   1094 O          13.4643   10.3646   14.2841 O.3     1  UNL1        0.0000
   1095 O           2.3737   10.9409   25.1238 O.3     1  UNL1        0.0000
   1096 O           9.3320   13.5759   16.1631 O.3     1  UNL1        0.0000
   1097 O           4.6301    6.5721   23.1441 O.3     1  UNL1        0.0000
   1098 O          11.7861   12.3508   13.2303 O.3     1  UNL1        0.0000
   1099 O           7.2185   15.4528   13.0635 O.3     1  UNL1        0.0000
   1100 H           8.5849    8.5931   21.8192 H       1  UNL1        0.0000
   1101 H           4.6392    2.7300   19.6638 H       1  UNL1        0.0000
   1102 H           9.7109   17.9169   17.6724 H      18  UNL18       0.0000
   1103 H           9.5766   10.0820   20.0579 H       1  UNL1        0.0000
   1104 H           4.8570   10.7153   21.5154 H       1  UNL1        0.0000
   1105 H           1.2351    5.3460   19.4073 H       1  UNL1        0.0000
   1106 H           6.2365    8.9303   22.5277 H       1  UNL1        0.0000
   1107 H           5.8469   12.2068   19.7476 H       1  UNL1        0.0000
   1108 H          10.9291   15.8926   16.9354 H      18  UNL18       0.0000
   1109 H          -2.8831   15.8605   17.8424 H       9  UNK9        0.0000
   1110 C           7.7680   11.2284   19.7935 C.ar    1  UNL1        0.0000
   1111 C           6.6648    9.5707   21.7585 C.ar    1  UNL1        0.0000
   1112 C          11.3559   16.5261   17.7113 C.2    18  UNL18       0.0000
   1113 C           2.9911    4.1201   19.6395 C.ar    1  UNL1        0.0000
   1114 C           6.4340   11.4134   20.2054 C.ar    1  UNL1        0.0000
   1115 C           7.9933    9.3812   21.3558 C.ar    1  UNL1        0.0000
   1116 C          10.6693   17.6739   18.1284 C.2    18  UNL18       0.0000
   1117 C           3.6742    2.9632   19.2190 C.ar    1  UNL1        0.0000
   1118 C          12.5955   16.1963   18.2737 C.3    18  UNL18       0.0000
   1119 C           1.7422    4.4431   19.0741 C.ar    1  UNL1        0.0000
   1120 C           8.5446   10.2075   20.3766 C.ar    1  UNL1        0.0000
   1121 C           5.8863   10.5837   21.1850 C.ar    1  UNL1        0.0000
   1122 O           9.5455   11.8496   18.3391 O.3     1  UNL1        0.0000
   1123 O           2.9263    6.0358   21.0483 O.3     1  UNL1        0.0000
   1124 O           4.7561    4.7200   21.1212 O.3     1  UNL1        0.0000
   1125 O           7.6400   13.0558   18.2776 O.3     1  UNL1        0.0000
   1126 N          21.6522   20.7264   44.9899 N.pl3  24  UNL24       0.0000
   1127 N          20.2319   21.4856   43.5153 N.pl3  24  UNL24       0.0000
   1128 C          21.6391   22.1087   45.1104 C.2    24  UNL24       0.0000
   1129 C          20.7514   22.5817   44.1827 C.2    24  UNL24       0.0000
   1130 C          19.8704   21.9523   41.0875 C.3    24  UNL24       0.0000
   1131 C          22.4021   19.7948   45.8421 C.3    24  UNL24       0.0000
   1132 C          20.7926   20.3708   44.0131 C.3    24  UNL24       0.0000
   1133 C          19.2408   21.5358   42.4131 C.3    24  UNL24       0.0000
   1134 H          22.2655   22.6316   45.8219 H      24  UNL24       0.0000
   1135 H          20.4532   23.5908   43.9370 H      24  UNL24       0.0000
   1136 H          20.3374   22.9433   41.1674 H      24  UNL24       0.0000
   1137 H          23.3827   20.2286   46.0663 H      24  UNL24       0.0000
   1138 H          20.6297   21.2320   40.7596 H      24  UNL24       0.0000
   1139 H          21.8438   19.6069   46.7677 H      24  UNL24       0.0000
   1140 H          19.0863   22.0015   40.3192 H      24  UNL24       0.0000
   1141 H          18.4624   22.2396   42.7340 H      24  UNL24       0.0000
   1142 H          22.5299   18.8442   45.3140 H      24  UNL24       0.0000
   1143 H          20.5818   19.3538   43.7096 H      24  UNL24       0.0000
   1144 H          18.7851   20.5396   42.3586 H      24  UNL24       0.0000
@<TRIPOS>BOND
     1   301   384    1
     2   338   344    2
     3   338   350    1
     4   337   343    2
     5   337   347    1
     6    15    98    1
     7   384   291    1
     8   344   376    1
     9   873   956    1
    10    52    58    2
    11    52    64    1
    12   343   377    1
    13    51    57    2
    14    51    61    1
    15    98     5    1
    16    58    90    1
    17   910   916    2
    18   910   922    1
    19   909   915    2
    20   909   919    1
    21   587   670    1
    22   956   863    1
    23   916   948    1
    24   341   335    2
    25   341   379    1
    26    57    91    1
    27   342   336    2
    28   342   374    1
    29   335   345    1
    30   624   630    2
    31   624   636    1
    32   915   949    1
    33   623   629    2
    34   623   633    1
    35   670   577    1
    36   336   352    1
    37   630   662    1
    38    55    49    2
    39    55    93    1
    40    56    50    2
    41    56    88    1
    42   383   302    1
    43   383   288    1
    44    49    59    1
    45   913   907    2
    46   913   951    1
    47   629   663    1
    48   914   908    2
    49   914   946    1
    50    50    66    1
    51   907   917    1
    52    97    16    1
    53    97     2    1
    54   908   924    1
    55   627   621    2
    56   627   665    1
    57   628   622    2
    58   628   660    1
    59   955   874    1
    60   955   860    1
    61   621   631    1
    62   622   638    1
    63   669   588    1
    64   669   574    1
    65   376   291    1
    66   350   300    1
    67   377   288    1
    68    90     5    1
    69   374   291    1
    70   379   288    1
    71   347   922    2
    72   347   298    1
    73   948   863    1
    74    64    14    1
    75    91     2    1
    76    88     5    1
    77    93     2    1
    78   922   872    1
    79   949   860    1
    80    61   636    2
    81    61    12    1
    82   662   577    1
    83   946   863    1
    84   951   860    1
    85   919   870    1
    86   636   586    1
    87   663   574    1
    88   660   577    1
    89   345    66    2
    90   345   296    1
    91   665   574    1
    92   633   584    1
    93   352   353    1
    94    59    10    1
    95    66    67    1
    96   917   638    2
    97   917   868    1
    98   924   925    1
    99   631   582    1
   100   638   639    1
   101   291   372    1
   102   291   370    1
   103   291   360    1
   104     5    86    1
   105     5    84    1
   106     5    74    1
   107   863   944    1
   108   863   942    1
   109   863   932    1
   110   288   365    1
   111   288   367    1
   112   288   363    1
   113   577   658    1
   114   577   656    1
   115   577   646    1
   116     2    79    1
   117     2    81    1
   118     2    77    1
   119   860   937    1
   120   860   939    1
   121   860   935    1
   122   574   651    1
   123   574   653    1
   124   574   649    1
   125   311   381    1
   126    25    95    1
   127   372   290    1
   128   883   953    1
   129    86     4    1
   130   597   667    1
   131   944   862    1
   132   365   294    1
   133   658   576    1
   134   353   309    1
   135    79     8    1
   136    67    23    1
   137    67   310    1
   138   937   866    1
   139   925   881    1
   140   651   580    1
   141   639   595    1
   142   639   882    1
   143   370   290    1
   144    84     4    1
   145   367   294    1
   146   942   862    1
   147   381   294    1
   148    81     8    1
   149   656   576    1
   150   939   866    1
   151    95     8    1
   152   953   866    1
   153   653   580    1
   154   667   580    1
   155   360   322    1
   156    74    36    1
   157   932   894    1
   158   363   319    1
   159   646   608    1
   160    77    33    1
   161   935   891    1
   162   290   361    1
   163   290   410    1
   164   649   605    1
   165     4    75    1
   166     4   124    1
   167   294   357    1
   168   294   407    1
   169   862   933    1
   170   862   982    1
   171     8    71    1
   172     8   121    1
   173   576   647    1
   174   576   696    1
   175   393   397    1
   176   866   929    1
   177   866   979    1
   178   107   111    1
   179   580   643    1
   180   580   693    1
   181   965   969    1
   182   679   683    1
   183   308   330    1
   184    22    44    1
   185   306   333    1
   186   880   902    1
   187    20    47    1
   188   594   616    1
   189   878   905    1
   190   592   619    1
   191   387   401    1
   192   397   401    1
   193   397   403    2
   194   101   115    1
   195   322   361    1
   196   322   326    1
   197   959   973    1
   198   111   115   ar
   199   111   117   ar
   200    36    75    1
   201    36    40    1
   202   969   973    2
   203   969   975    1
   204   673   687    1
   205   894   933    1
   206   894   898    1
   207   683   687    2
   208   683   689    1
   209   319   357    1
   210   319   323    1
   211   608   647    1
   212   608   612    1
   213    33    71    1
   214    33    37    1
   215   966   403    1
   216   891   929    1
   217   891   895    2
   218   680   117    1
   219   605   643    1
   220   605   609    2
   221   115   976   ar
   222   410   339    1
   223   330   326    1
   224   117   974   ar
   225   124    53    1
   226   407   339    1
   227    44    40   ar
   228    44   332   ar
   229   982   911    1
   230   902   898    1
   231   333   323   ar
   232   333   900   ar
   233   121    53    1
   234   696   625    1
   235   979   911    1
   236   616   612   ar
   237   616   904   ar
   238    47    37   ar
   239    47   614   ar
   240   905   895    1
   241   693   625    1
   242   619   609    1
   243   326   331    2
   244   339   395    1
   245   307   328    1
   246    40    45   ar
   247    53   109    1
   248   898   903    2
   249   911   967    1
   250    21    42    1
   251   323   327   ar
   252   879   900    1
   253   612   617   ar
   254   625   681    1
   255    37    41   ar
   256   593   614    1
   257   895   899    1
   258   303   332    1
   259   609   613    1
   260    17    46    1
   261   404   390    1
   262   404   398    1
   263   875   904    1
   264   118   104    1
   265   118   112    1
   266   589   618    1
   267   328   324    1
   268   976   962    1
   269   976   970   ar
   270    42    38    1
   271   402   398    1
   272   402   386    1
   273   690   676    1
   274   690   684    1
   275   900   896   ar
   276   116   112    1
   277   116   100    1
   278   332   325   ar
   279   614   610   ar
   280   974   970   ar
   281   974   958    1
   282    46    39    1
   283   688   684    1
   284   688   672    1
   285   904   897   ar
   286   618   611    1
   287   398   340    2
   288   112    54    2
   289   970   912    1
   290   392   399    1
   291   684   626    2
   292   395   399   ar
   293   395   405   ar
   294   106   113    1
   295   964   971    1
   296   109   113   ar
   297   109   119   ar
   298   967   971   ar
   299   967   977   ar
   300   678   685    1
   301   681   685   ar
   302   681   691   ar
   303   388   405    1
   304   331   304    1
   305   102   119    1
   306   960   977    1
   307    45    18    1
   308    45   329   ar
   309   316   355    1
   310   903   876    1
   311   674   691    1
   312   399   406   ar
   313    30    69    1
   314   617   590    1
   315   617   901   ar
   316   113   120   ar
   317   888   927    1
   318   327   355    1
   319   327   906   ar
   320   971   978   ar
   321   602   641    1
   322    41    69    1
   323    41   620   ar
   324   685   692   ar
   325   899   927    1
   326   405   400   ar
   327   613   641    1
   328   119   114   ar
   329   977   972   ar
   330   691   686   ar
   331   324   334    2
   332   324   320    1
   333    38    48    2
   334    38    34    1
   335   896   906   ar
   336   896   892    1
   337   340   408    1
   338   340   409    1
   339   325   329   ar
   340   325   321    1
   341   610   620   ar
   342   610   606    1
   343    54   122    1
   344    54   123    1
   345    39    43    2
   346    39    35    1
   347   912   980    1
   348   912   981    1
   349   897   901   ar
   350   897   893    1
   351   355   315    1
   352   626   694    1
   353   626   695    1
   354   611   615    2
   355   611   607    1
   356    69    29    1
   357   927   887    1
   358   641   601    1
   359   408   293    1
   360   334   305    1
   361   122     7    1
   362    48    19    1
   363   409   289    1
   364   358   320    1
   365   358   293    1
   366   329   356    1
   367   980   865    1
   368   906   877    1
   369   123     3    1
   370   406   389    1
   371   406   396   ar
   372    72    34    1
   373    72     7    1
   374    43    70    1
   375   694   579    1
   376   620   591    1
   377   981   861    1
   378   930   892    1
   379   930   865    1
   380   362   321    1
   381   362   289    1
   382   901   928    1
   383   120   103    1
   384   120   110   ar
   385   695   575    1
   386   978   961    1
   387   978   968   ar
   388   644   606    1
   389   644   579    1
   390    76    35    1
   391    76     3    1
   392   615   642    1
   393   934   893    1
   394   934   861    1
   395   692   675    1
   396   692   682   ar
   397   400   396   ar
   398   400   385    1
   399   648   607    1
   400   648   575    1
   401   114   110   ar
   402   114    99    1
   403   972   968   ar
   404   972   957    1
   405   686   682   ar
   406   686   671    1
   407   320   364    1
   408    34    78    1
   409   892   936    1
   410   321   359    1
   411   606   650    1
   412    35    73    1
   413   893   931    1
   414   396   391    1
   415   607   645    1
   416   110   105    1
   417   968   963    1
   418   682   677    1
   419   356   317    1
   420   356   318    1
   421   293   382    1
   422   293   366    1
   423   293   368    1
   424    70    31    1
   425    70    32    1
   426     7    96    1
   427     7    80    1
   428     7    82    1
   429   928   889    1
   430   928   890    1
   431   289   371    1
   432   289   369    1
   433   865   954    1
   434   865   938    1
   435   865   940    1
   436   642   603    1
   437   642   604    1
   438     3    85    1
   439     3    83    1
   440   579   668    1
   441   579   652    1
   442   579   654    1
   443   861   943    1
   444   861   941    1
   445   575   657    1
   446   575   655    1
   447   364   287    1
   448    78     1    1
   449   936   859    1
   450   359   292    1
   451   650   573    1
   452   313   354    1
   453    73     6    1
   454   931   864    1
   455    27    68    1
   456   885   926    1
   457   645   578    1
   458   599   640    1
   459   382   312    1
   460    96    26    1
   461   366   287    1
   462   954   884    1
   463    80     1    1
   464   668   598    1
   465   938   859    1
   466   371   292    1
   467   652   573    1
   468    85     6    1
   469   943   864    1
   470   657   578    1
   471   314   354    1
   472   354   349    1
   473    28    68    1
   474   368   287    1
   475   886   926    1
   476    68    63    1
   477   926   921    1
   478    82     1    1
   479   600   640    1
   480   940   859    1
   481   369   292    1
   482   640   635    1
   483   654   573    1
   484    83     6    1
   485   941   864    1
   486   655   578    1
   487   297   348    1
   488    11    62    1
   489   869   920    1
   490   299   351    1
   491   583   634    1
   492   295   346    1
   493    13    65    1
   494   871   923    1
   495     9    60    1
   496   867   918    1
   497   585   637    1
   498   581   632    1
   499   287   378    1
   500   287   380    1
   501     1    92    1
   502     1    94    1
   503   859   950    1
   504   859   952    1
   505   292   375    1
   506   292   373    1
   507   292   526    1
   508   573   664    1
   509   573   666    1
   510     6    89    1
   511     6    87    1
   512     6   240    1
   513   864   947    1
   514   864   945    1
   515   864  1098    1
   516   578   661    1
   517   578   659    1
   518   578   812    1
   519   348   481    1
   520   349   920   ar
   521   349   480   ar
   522    62   195    1
   523    63   634   ar
   524    63   194   ar
   525   920  1053   ar
   526   921  1052    1
   527   378   487    1
   528   634   767   ar
   529   635   766    1
   530   346   479    1
   531   351    60   ar
   532   351   478   ar
   533    92   201    1
   534   375   486    1
   535   373   484    1
   536   380   485    1
   537    60   193   ar
   538    65   192    1
   539   950  1059    1
   540   918  1051    1
   541   923   632   ar
   542   923  1050   ar
   543    89   200    1
   544    87   198    1
   545    94   199    1
   546   664   773    1
   547   947  1058    1
   548   945  1056    1
   549   952  1057    1
   550   632   765   ar
   551   637   764    1
   552   661   772    1
   553   659   770    1
   554   666   771    1
   555   444   527    1
   556   481   487    2
   557   481   493    1
   558   480   486    1
   559   480   490   ar
   560   158   241    1
   561   527   434    1
   562   487   519    1
   563  1016  1099    1
   564   195   201    2
   565   195   207    1
   566   486   520    1
   567   194   200    1
   568   194   204   ar
   569   241   148    1
   570   201   233    1
   571  1053  1059    1
   572  1053  1065   ar
   573  1052  1058    2
   574  1052  1062    1
   575   730   813    1
   576  1099  1006    1
   577  1059  1091    1
   578   484   478    1
   579   484   522    1
   580   200   234    1
   581   485   479    2
   582   485   517    1
   583   478   488   ar
   584   767   773    1
   585   767   779   ar
   586  1058  1092    1
   587   766   772    2
   588   766   776    1
   589   813   720    1
   590   479   495    1
   591   773   805    1
   592   198   192    2
   593   198   236    1
   594   199   193    1
   595   199   231    1
   596   526   445    1
   597   192   202    1
   598  1056  1050    1
   599  1056  1094    1
   600   772   806    1
   601  1057  1051    2
   602  1057  1089    1
   603   193   209   ar
   604  1050  1060   ar
   605   240   159    1
   606  1051  1067    1
   607   770   764    2
   608   770   808    1
   609   771   765    1
   610   771   803    1
   611  1098  1017    1
   612   764   774    1
   613   765   781   ar
   614   812   731    1
   615   519   434    1
   616   493   443    1
   617   520   431    1
   618   233   148    1
   619   517   434    1
   620   522   431    1
   621   490  1065   ar
   622   490   441    1
   623  1091  1006    1
   624   207   157    1
   625   234   145    1
   626   231   148    1
   627   236   145    1
   628  1065  1015    1
   629  1092  1003    1
   630   204   779   ar
   631   204   155    1
   632   805   720    1
   633  1089  1006    1
   634  1094  1003    1
   635  1062  1013    1
   636   779   729    1
   637   806   717    1
   638   803   720    1
   639   488   209   ar
   640   488   439    1
   641   808   717    1
   642   776   727    1
   643   495   496    1
   644   202   153    1
   645   209   210    1
   646  1060   781   ar
   647  1060  1011    1
   648  1067  1068    1
   649   774   725    1
   650   781   782    1
   651   434   515    1
   652   434   513    1
   653   434   503    1
   654   148   229    1
   655   148   227    1
   656   148   217    1
   657  1006  1087    1
   658  1006  1085    1
   659  1006  1075    1
   660   431   508    1
   661   431   510    1
   662   431   506    1
   663   720   801    1
   664   720   799    1
   665   720   789    1
   666   145   222    1
   667   145   224    1
   668   145   220    1
   669  1003  1080    1
   670  1003  1082    1
   671  1003  1078    1
   672   717   794    1
   673   717   796    1
   674   717   792    1
   675   454   524    1
   676   168   238    1
   677   515   433    1
   678  1026  1096    1
   679   229   147    1
   680   740   810    1
   681  1087  1005    1
   682   508   437    1
   683   801   719    1
   684   496   452    1
   685   222   151    1
   686   210   166    1
   687   210   453    1
   688  1080  1009    1
   689  1068  1024    1
   690   794   723    1
   691   782   738    1
   692   782  1025    1
   693   513   433    1
   694   227   147    1
   695   510   437    1
   696  1085  1005    1
   697   524   437    1
   698   224   151    1
   699   799   719    1
   700  1082  1009    1
   701   238   151    1
   702  1096  1009    1
   703   796   723    1
   704   810   723    1
   705   503   465    1
   706   217   179    1
   707  1075  1037    1
   708   506   462    1
   709   789   751    1
   710   220   176    1
   711  1078  1034    1
   712   433   504    1
   713   433   553    1
   714   792   748    1
   715   147   218    1
   716   147   267    1
   717   437   500    1
   718   437   550    1
   719  1005  1076    1
   720  1005  1125    1
   721   151   214    1
   722   151   264    1
   723   719   790    1
   724   719   839    1
   725   536   540    1
   726  1009  1072    1
   727  1009  1122    1
   728   250   254    1
   729   723   786    1
   730   723   836    1
   731  1108  1112    1
   732   822   826    1
   733   451   473    1
   734   165   187    1
   735   449   476    1
   736  1023  1045    1
   737   163   190    1
   738   737   759    1
   739  1021  1048    1
   740   735   762    1
   741   530   544    1
   742   540   544    1
   743   540   546    2
   744   244   258    1
   745   465   504    1
   746   465   469    1
   747  1102  1116    1
   748   254   258   ar
   749   254   260   ar
   750   179   218    1
   751   179   183    1
   752  1112  1116    2
   753  1112  1118    1
   754   816   830    1
   755  1037  1076    1
   756  1037  1041    1
   757   826   830    2
   758   826   832    1
   759   462   500    1
   760   462   466    1
   761   751   790    1
   762   751   755    1
   763   176   214    1
   764   176   180    1
   765  1109   546    1
   766  1034  1072    1
   767  1034  1038    2
   768   823   260    1
   769   748   786    1
   770   748   752    2
   771   258  1119   ar
   772   553   482    1
   773   473   469    1
   774   260  1117   ar
   775   267   196    1
   776   550   482    1
   777   187   183   ar
   778   187   475   ar
   779  1125  1054    1
   780  1045  1041    1
   781   476   466   ar
   782   476  1043   ar
   783   264   196    1
   784   839   768    1
   785  1122  1054    1
   786   759   755   ar
   787   759  1047   ar
   788   190   180   ar
   789   190   757   ar
   790  1048  1038    1
   791   836   768    1
   792   762   752    1
   793   469   474    2
   794   482   538    1
   795   450   471    1
   796   183   188   ar
   797   196   252    1
   798  1041  1046    2
   799  1054  1110    1
   800   164   185    1
   801   466   470   ar
   802  1022  1043    1
   803   755   760   ar
   804   768   824    1
   805   180   184   ar
   806   736   757    1
   807  1038  1042    1
   808   446   475    1
   809   752   756    1
   810   160   189    1
   811   547   533    1
   812   547   541    1
   813  1018  1047    1
   814   261   247    1
   815   261   255    1
   816   732   761    1
   817   471   467    1
   818  1119  1105    1
   819  1119  1113   ar
   820   185   181    1
   821   545   541    1
   822   545   529    1
   823   833   819    1
   824   833   827    1
   825  1043  1039   ar
   826   259   255    1
   827   259   243    1
   828   475   468   ar
   829   757   753   ar
   830  1117  1113   ar
   831  1117  1101    1
   832   189   182    1
   833   831   827    1
   834   831   815    1
   835  1047  1040   ar
   836   761   754    1
   837   541   483    2
   838   255   197    2
   839  1113  1055    1
   840   535   542    1
   841   827   769    2
   842   538   542   ar
   843   538   548   ar
   844   249   256    1
   845  1107  1114    1
   846   252   256   ar
   847   252   262   ar
   848  1110  1114   ar
   849  1110  1120   ar
   850   821   828    1
   851   824   828   ar
   852   824   834   ar
   853   531   548    1
   854   474   447    1
   855   245   262    1
   856  1103  1120    1
   857   188   161    1
   858   188   472   ar
   859   459   498    1
   860  1046  1019    1
   861   817   834    1
   862   542   549   ar
   863   173   212    1
   864   760   733    1
   865   760  1044   ar
   866   256   263   ar
   867  1031  1070    1
   868   470   498    1
   869   470  1049   ar
   870  1114  1121   ar
   871   745   784    1
   872   184   212    1
   873   184   763   ar
   874   828   835   ar
   875  1042  1070    1
   876   548   543   ar
   877   756   784    1
   878   262   257   ar
   879  1120  1115   ar
   880   834   829   ar
   881   467   477    2
   882   467   463    1
   883   181   191    2
   884   181   177    1
   885  1039  1049   ar
   886  1039  1035    1
   887   483   551    1
   888   483   552    1
   889   468   472   ar
   890   468   464    1
   891   753   763   ar
   892   753   749    1
   893   197   265    1
   894   197   266    1
   895   182   186    2
   896   182   178    1
   897  1055  1123    1
   898  1055  1124    1
   899  1040  1044   ar
   900  1040  1036    1
   901   498   458    1
   902   769   837    1
   903   769   838    1
   904   754   758    2
   905   754   750    1
   906   212   172    1
   907  1070  1030    1
   908   784   744    1
   909   551   436    1
   910   477   448    1
   911   265   150    1
   912   191   162    1
   913   552   432    1
   914   501   463    1
   915   501   436    1
   916   472   499    1
   917  1123  1008    1
   918  1049  1020    1
   919   266   146    1
   920   549   532    1
   921   549   539   ar
   922   215   177    1
   923   215   150    1
   924   186   213    1
   925   837   722    1
   926   763   734    1
   927  1124  1004    1
   928  1073  1035    1
   929  1073  1008    1
   930   505   464    1
   931   505   432    1
   932  1044  1071    1
   933   263   246    1
   934   263   253   ar
   935   838   718    1
   936  1121  1104    1
   937  1121  1111   ar
   938   787   749    1
   939   787   722    1
   940   219   178    1
   941   219   146    1
   942   758   785    1
   943  1077  1036    1
   944  1077  1004    1
   945   835   818    1
   946   835   825   ar
   947   543   539   ar
   948   543   528    1
   949   791   750    1
   950   791   718    1
   951   257   253   ar
   952   257   242    1
   953  1115  1111   ar
   954  1115  1100    1
   955   829   825   ar
   956   829   814    1
   957   463   507    1
   958   177   221    1
   959  1035  1079    1
   960   464   502    1
   961   749   793    1
   962   178   216    1
   963  1036  1074    1
   964   539   534    1
   965   750   788    1
   966   253   248    1
   967  1111  1106    1
   968   825   820    1
   969   499   460    1
   970   499   461    1
   971   436   525    1
   972   436   509    1
   973   436   511    1
   974   213   174    1
   975   213   175    1
   976   150   239    1
   977   150   223    1
   978   150   225    1
   979  1071  1032    1
   980  1071  1033    1
   981   432   514    1
   982   432   512    1
   983  1008  1097    1
   984  1008  1081    1
   985  1008  1083    1
   986   785   746    1
   987   785   747    1
   988   146   228    1
   989   146   226    1
   990   722   811    1
   991   722   795    1
   992   722   797    1
   993  1004  1086    1
   994  1004  1084    1
   995   718   800    1
   996   718   798    1
   997   507   430    1
   998   221   144    1
   999  1079  1002    1
  1000   502   435    1
  1001   793   716    1
  1002   456   497    1
  1003   216   149    1
  1004  1074  1007    1
  1005   170   211    1
  1006  1028  1069    1
  1007   788   721    1
  1008   742   783    1
  1009   525   455    1
  1010   239   169    1
  1011   509   430    1
  1012  1097  1027    1
  1013   223   144    1
  1014   811   741    1
  1015  1081  1002    1
  1016   514   435    1
  1017   795   716    1
  1018   228   149    1
  1019  1086  1007    1
  1020   800   721    1
  1021   457   497    1
  1022   497   492    1
  1023   171   211    1
  1024   511   430    1
  1025  1029  1069    1
  1026   211   206    1
  1027  1069  1064    1
  1028   225   144    1
  1029   743   783    1
  1030  1083  1002    1
  1031   512   435    1
  1032   783   778    1
  1033   797   716    1
  1034   226   149    1
  1035  1084  1007    1
  1036   798   721    1
  1037   440   491    1
  1038   154   205    1
  1039  1012  1063    1
  1040   442   494    1
  1041   726   777    1
  1042   438   489    1
  1043   156   208    1
  1044  1014  1066    1
  1045   152   203    1
  1046  1010  1061    1
  1047   728   780    1
  1048   724   775    1
  1049   430   521    1
  1050   430   523    1
  1051   144   235    1
  1052   144   237    1
  1053  1002  1093    1
  1054  1002  1095    1
  1055   435   518    1
  1056   435   516    1
  1057   716   807    1
  1058   716   809    1
  1059   149   232    1
  1060   149   230    1
  1061  1007  1090    1
  1062  1007  1088    1
  1063   721   804    1
  1064   721   802    1
  1065   492  1063    2
  1066   206   777    2
  1067   494   203    2
  1068  1066   775    2
  1069   425   415    1
  1070   139   129    1
  1071   997   987    1
  1072   711   701    1
  1073   423   415    1
  1074   137   129    1
  1075   995   987    1
  1076   709   701    1
  1077   415   421    1
  1078   415   418    1
  1079   129   135    1
  1080   129   132    1
  1081   987   993    1
  1082   987   990    1
  1083   701   707    1
  1084   701   704    1
  1085   429   418    1
  1086   418   426    1
  1087   418   412    1
  1088   143   132    1
  1089  1001   990    1
  1090   132   140    1
  1091   132   126    1
  1092   990   998    1
  1093   990   984    1
  1094   715   704    1
  1095   704   712    1
  1096   704   698    1
  1097   412   417    1
  1098   412   414    1
  1099   126   131    1
  1100   126   128    1
  1101   984   989    1
  1102   984   986    1
  1103   698   703    1
  1104   698   700    1
  1105   428   417    1
  1106   142   131    1
  1107  1000   989    1
  1108   714   703    1
  1109   420   414    1
  1110   134   128    1
  1111   417   411    1
  1112   992   986    1
  1113   131   125    1
  1114   706   700    1
  1115   989   983    1
  1116   703   697    1
  1117   414   413    2
  1118   128   127    2
  1119   986   985    2
  1120   700   699    2
  1121   411   413    1
  1122   411   416    1
  1123   125   127    1
  1124   125   130    1
  1125   983   985    1
  1126   983   988    1
  1127   413   419    1
  1128   697   699    1
  1129   697   702    1
  1130   127   133    1
  1131   985   991    1
  1132   699   705    1
  1133   427   416    1
  1134   141   130    1
  1135   999   988    1
  1136   713   702    1
  1137   416   422    1
  1138   416   424    1
  1139   130   136    1
  1140   130   138    1
  1141   988   994    1
  1142   988   996    1
  1143   702   708    1
  1144   702   710    1
  1145   568   558    1
  1146   282   272    1
  1147  1140  1130    1
  1148   854   844    1
  1149   566   558    1
  1150   280   272    1
  1151  1138  1130    1
  1152   852   844    1
  1153   558   564    1
  1154   558   561    1
  1155   272   278    1
  1156   272   275    1
  1157  1130  1136    1
  1158  1130  1133    1
  1159   844   850    1
  1160   844   847    1
  1161   572   561    1
  1162   561   569    1
  1163   561   555    1
  1164   286   275    1
  1165  1144  1133    1
  1166   275   283    1
  1167   275   269    1
  1168  1133  1141    1
  1169  1133  1127    1
  1170   858   847    1
  1171   847   855    1
  1172   847   841    1
  1173   555   560    1
  1174   555   557    1
  1175   269   274    1
  1176   269   271    1
  1177  1127  1132    1
  1178  1127  1129    1
  1179   841   846    1
  1180   841   843    1
  1181   571   560    1
  1182   285   274    1
  1183  1143  1132    1
  1184   857   846    1
  1185   563   557    1
  1186   277   271    1
  1187   560   554    1
  1188  1135  1129    1
  1189   274   268    1
  1190   849   843    1
  1191  1132  1126    1
  1192   846   840    1
  1193   557   556    2
  1194   271   270    2
  1195  1129  1128    2
  1196   843   842    2
  1197   554   556    1
  1198   554   559    1
  1199   268   270    1
  1200   268   273    1
  1201  1126  1128    1
  1202  1126  1131    1
  1203   556   562    1
  1204   840   842    1
  1205   840   845    1
  1206   270   276    1
  1207  1128  1134    1
  1208   842   848    1
  1209   570   559    1
  1210   284   273    1
  1211  1142  1131    1
  1212   856   845    1
  1213   559   565    1
  1214   559   567    1
  1215   273   279    1
  1216   273   281    1
  1217  1131  1137    1
  1218  1131  1139    1
  1219   845   851    1
  1220   845   853    1
