@<TRIPOS>MOLECULE
Lattice="47.998314632938815 -1.671794829 0.268704666 -19.551087764410504 43.837528774156056 -0.16955525700000001 -13.90393925690583 -21.19930898781928 39.28382773573439" Properties=species:S:1:pos:R:3 i=232 E=-1362.5050166391 pbc="T T T"
 3861 4209 0 0 0
SMALL
GASTEIGER

@<TRIPOS>ATOM
      1 TI         -2.8554    2.2298   11.2464 Ti      1  UNL1        0.0000
      2 TI          7.9750    5.1110    1.8816 Ti      1  UNL1        0.0000
      3 TI          1.2413   -1.7064    9.4264 Ti      1  UNL1        0.0000
      4 TI          2.7524    7.4557    3.6534 Ti      1  UNL1        0.0000
      5 TI          1.7539    9.1340    1.7490 Ti      1  UNL1        0.0000
      6 TI          3.1295   -1.9608   11.3798 Ti      1  UNL1        0.0000
      7 TI         -1.9062    0.4939    9.3549 Ti      1  UNL1        0.0000
      8 TI          5.9872    5.4135    3.7291 Ti      1  UNL1        0.0000
      9 H          -2.3536    6.1268   11.0269 H       1  UNL1        0.0000
     10 H           8.7838    1.2049    2.2023 H       1  UNL1        0.0000
     11 H          -6.8153    1.4731   10.8639 H       1  UNL1        0.0000
     12 H          11.3572    7.1153    2.0822 H       1  UNL1        0.0000
     13 H           4.1051   -5.9953   10.9939 H       1  UNL1        0.0000
     14 H          -2.3047    8.5441    2.0711 H       1  UNL1        0.0000
     15 H           2.2483    7.4972   -0.1241 H       1  UNL1        0.0000
     16 H           6.0995    4.8683    0.1817 H       1  UNL1        0.0000
     17 H           3.6394   -2.6279    5.8687 H       1  UNL1        0.0000
     18 H           1.0290    9.2927    7.2723 H       1  UNL1        0.0000
     19 H          -5.9789    3.8825    8.9990 H       1  UNL1        0.0000
     20 H          10.7298    3.0267    4.1876 H       1  UNL1        0.0000
     21 H          -3.6778    2.4351    5.6652 H       1  UNL1        0.0000
     22 H          -1.3462   10.9619    4.1022 H       1  UNL1        0.0000
     23 H           2.1461   12.2368    2.6045 H       1  UNL1        0.0000
     24 H           8.6260   -0.8139    3.4048 H      54  UNL54       0.0000
     25 H           4.8451    7.1358    2.3148 H       1  UNL1        0.0000
     26 H           0.1605    0.1420   10.7200 H       1  UNL1        0.0000
     27 H           7.3642   -0.0259    9.7694 H       1  UNL1        0.0000
     28 H           5.8831   -0.4950   10.5168 H       1  UNL1        0.0000
     29 H           7.9383    4.4077    8.6705 H       1  UNL1        0.0000
     30 H           7.3686    4.7663    7.0520 H       1  UNL1        0.0000
     31 H           6.8754   -4.9808    9.5794 H       1  UNL1        0.0000
     32 H           5.5962   -3.8802   10.0368 H       1  UNL1        0.0000
     33 C           8.5531    4.3697    4.7451 C.3     1  UNL1        0.0000
     34 C          -3.8160    2.4911    8.3994 C.3     1  UNL1        0.0000
     35 C           3.8218   -2.7171    8.5017 C.3     1  UNL1        0.0000
     36 C           0.8163    9.4262    4.6127 C.3     1  UNL1        0.0000
     37 C           9.4491    3.7654    5.7403 C.ar    1  UNL1        0.0000
     38 C          -4.7479    3.1162    7.4223 C.2     1  UNL1        0.0000
     39 C           4.7619   -3.3315    7.5545 C.2     1  UNL1        0.0000
     40 C          -0.0735   10.0730    5.6125 C.ar    1  UNL1        0.0000
     41 C           9.2003    3.8403    7.1467 C.ar    1  UNL1        0.0000
     42 C          -4.5315    2.9962    6.0343 C.3     1  UNL1        0.0000
     43 C           5.8914   -4.0918    8.0076 C.2     1  UNL1        0.0000
     44 C          -1.1682   10.8460    5.1676 C.ar    1  UNL1        0.0000
     45 C           0.1810    9.9022    6.9674 C.ar    1  UNL1        0.0000
     46 C           4.5142   -3.1994    6.1706 C.3     1  UNL1        0.0000
     47 C          10.5828    3.0664    5.2646 C.ar    1  UNL1        0.0000
     48 C          -5.8481    3.8086    7.9210 C.2     1  UNL1        0.0000
     49 C           8.7648    1.2840    0.0582 C.2     1  UNL1        0.0000
     50 C           2.2951   13.0756    0.0832 C.2     1  UNL1        0.0000
     51 C          11.2493    7.0471   -0.0678 C.2     1  UNL1        0.0000
     52 C          -2.1091    8.5895   -0.0872 C.2     1  UNL1        0.0000
     53 C           3.4992    5.1125    5.6180 C.3     1  UNL1        0.0000
     54 C          -1.2569   -1.9819    7.5361 C.2     1  UNL1        0.0000
     55 C           8.6290    2.7388    0.0350 C.2     1  UNL1        0.0000
     56 C           2.2024   11.6421    0.0457 C.2     1  UNL1        0.0000
     57 C           9.9514    6.4303   -0.0210 C.2     1  UNL1        0.0000
     58 C          -0.7067    9.0039   -0.0628 C.2     1  UNL1        0.0000
     59 C           8.8042    0.6149    1.2879 C.3     1  UNL1        0.0000
     60 C          -2.3426    6.7152   11.9408 C.ar    1  UNL1        0.0000
     61 C          11.9046    7.3219    1.1661 C.2     1  UNL1        0.0000
     62 C          -7.3768    1.2938   11.7793 C.3     1  UNL1        0.0000
     63 C           7.3089    0.2494   11.7938 C.ar    1  UNL1        0.0000
     64 C          -2.8062    8.3591    1.1253 C.3     1  UNL1        0.0000
     65 C           4.1467   -6.5225   11.9429 C.3     1  UNL1        0.0000
     66 C           2.3089   13.8268    1.3125 C.2     1  UNL1        0.0000
     67 N           2.3639   13.2279    2.5506 N.pl3   1  UNL1        0.0000
     68 N           6.7299    0.0666   10.5548 N.pl3   1  UNL1        0.0000
     69 N           8.1194    4.4866    7.6780 N.pl3   1  UNL1        0.0000
     70 N           6.2224   -4.2500    9.3250 N.pl3   1  UNL1        0.0000
     71 O           7.3767    4.7748    5.1109 O.3     1  UNL1        0.0000
     72 O          -3.0470    1.5403    8.0011 O.3     1  UNL1        0.0000
     73 O           4.2032   -2.5927    9.7228 O.3     1  UNL1        0.0000
     74 O           0.7504    9.8559    3.4131 O.3     1  UNL1        0.0000
     75 O           1.5868    8.4690    4.9992 O.3     1  UNL1        0.0000
     76 O           2.6513   -2.3487    8.0962 O.3     1  UNL1        0.0000
     77 O           8.9649    4.4505    3.5334 O.3     1  UNL1        0.0000
     78 O          -3.8580    2.9274    9.5991 O.3     1  UNL1        0.0000
     79 O           6.2924    4.1956    2.5344 O.3     1  UNL1        0.0000
     80 O          -1.3538    2.0542   10.0994 O.3     1  UNL1        0.0000
     81 O           7.2312    6.4829    2.9843 O.3     1  UNL1        0.0000
     82 O          -3.1060    0.3296   10.5921 O.3     1  UNL1        0.0000
     83 O           1.5006   -2.8784   10.6868 O.3     1  UNL1        0.0000
     84 O           3.2690    9.0170    2.9149 O.3     1  UNL1        0.0000
     85 O           2.4545   -0.6169   10.2227 O.3     1  UNL1        0.0000
     86 O           1.5628    7.2599    2.3975 O.3     1  UNL1        0.0000
     87 O           3.8718   -3.7326   11.9889 O.2     1  UNL1        0.0000
     88 O           2.1193   10.9406    1.1409 O.2     1  UNL1        0.0000
     89 O           4.6739   -0.9445   11.9838 O.3     1  UNL1        0.0000
     90 O          -0.1167    9.1049    1.0808 O.2     1  UNL1        0.0000
     91 O           9.4121    6.1301    1.1270 O.2     1  UNL1        0.0000
     92 O          -4.7422    2.1697   11.9148 O.2     1  UNL1        0.0000
     93 O           8.6165    3.3758    1.1564 O.2     1  UNL1        0.0000
     94 O          -2.4740    3.9521   11.9961 O.3     1  UNL1        0.0000
     95 O           4.4842    6.5871    3.0354 O.3     1  UNL1        0.0000
     96 O          -0.2177   -0.4167   10.0165 O.3     1  UNL1        0.0000
     97 O           6.9383    5.3620    0.1026 O.3     1  UNL1        0.0000
     98 O           2.3707    8.4640   -0.0641 O.3     1  UNL1        0.0000
     99 H           3.8064    1.6078    8.6836 H       1  UNL1        0.0000
    100 H          -0.1178   -4.0933    6.2902 H       1  UNL1        0.0000
    101 H           4.6024   10.6241    5.0102 H       1  UNL1        0.0000
    102 H           4.7540    3.0977    6.8975 H       1  UNL1        0.0000
    103 H           0.0579    3.7116    8.4488 H       1  UNL1        0.0000
    104 H          -3.7839   -1.8660    6.6113 H       1  UNL1        0.0000
    105 H           1.4684    1.9231    9.4304 H       1  UNL1        0.0000
    106 H           1.0112    5.2092    6.6657 H       1  UNL1        0.0000
    107 H           5.9242    8.7731    4.0086 H       1  UNL1        0.0000
    108 H          -7.7130    8.9836    4.5569 H      54  UNL54       0.0000
    109 C           2.9380    4.2411    6.6810 C.ar    1  UNL1        0.0000
    110 C           1.8817    2.5822    8.6682 C.ar    1  UNL1        0.0000
    111 C           6.3912    9.4485    4.7245 C.ar    1  UNL1        0.0000
    112 C          -1.8874   -2.8875    6.5389 C.2     1  UNL1        0.0000
    113 C           1.6118    4.4220    7.1171 C.ar    1  UNL1        0.0000
    114 C           3.2037    2.3999    8.2418 C.ar    1  UNL1        0.0000
    115 C           5.6506   10.4997    5.2822 C.ar    1  UNL1        0.0000
    116 C          -1.1526   -3.9516    5.9844 C.3     1  UNL1        0.0000
    117 C           7.7291    9.2511    5.0882 C.ar    1  UNL1        0.0000
    118 C          -3.2300   -2.6892    6.1643 C.3     1  UNL1        0.0000
    119 C           3.7326    3.2267    7.2496 C.ar    1  UNL1        0.0000
    120 C           1.0862    3.5917    8.1100 C.ar    1  UNL1        0.0000
    121 O           4.7193    4.9344    5.2637 O.3     1  UNL1        0.0000
    122 O          -1.9240   -0.9568    7.9233 O.2     1  UNL1        0.0000
    123 O          -0.0853   -2.2625    7.9681 O.2     1  UNL1        0.0000
    124 O           2.7478    6.0140    5.1000 O.3     1  UNL1        0.0000
    125 N           5.8741   12.6829   27.7757 N.pl3   4  UNL4        0.0000
    126 N           5.7544   10.9247   26.4932 N.pl3   4  UNL4        0.0000
    127 C           6.2410   13.0831   26.5003 C.2     4  UNL4        0.0000
    128 C           6.1704   11.9781   25.6967 C.2     4  UNL4        0.0000
    129 C           6.9584    8.7765   26.1225 C.3     4  UNL4        0.0000
    130 C           5.8331   13.5523   28.9566 C.3     4  UNL4        0.0000
    131 C           5.5745   11.3711   27.7496 C.3     4  UNL4        0.0000
    132 C           5.6260    9.5185   26.0606 C.3     4  UNL4        0.0000
    133 H           6.5037   14.1088   26.2796 H       4  UNL4        0.0000
    134 H           6.3649   11.8478   24.6396 H       4  UNL4        0.0000
    135 H           7.7082    9.2331   25.4642 H       4  UNL4        0.0000
    136 H           6.8278   13.9824   29.1190 H       4  UNL4        0.0000
    137 H           7.3573    8.7478   27.1454 H       4  UNL4        0.0000
    138 H           5.0921   14.3430   28.7945 H       4  UNL4        0.0000
    139 H           6.8198    7.7367   25.7951 H       4  UNL4        0.0000
    140 H           5.2039    9.5430   25.0469 H       4  UNL4        0.0000
    141 H           5.5483   12.9537   29.8265 H       4  UNL4        0.0000
    142 H           5.2175   10.7742   28.5817 H       4  UNL4        0.0000
    143 H           4.8661    9.0635   26.7054 H       4  UNL4        0.0000
    144 TI         -7.4901   -4.8367   24.3410 Ti      1  UNL1        0.0000
    145 TI          3.3404   -1.9555   14.9762 Ti      1  UNL1        0.0000
    146 TI         -3.3934   -8.7729   22.5210 Ti      1  UNL1        0.0000
    147 TI         -1.8822    0.3893   16.7480 Ti      1  UNL1        0.0000
    148 TI         -2.8808    2.0676   14.8436 Ti      1  UNL1        0.0000
    149 TI         -1.5052   -9.0272   24.4744 Ti      1  UNL1        0.0000
    150 TI         -6.5409   -6.5726   22.4495 Ti      1  UNL1        0.0000
    151 TI          1.3526   -1.6529   16.8237 Ti      1  UNL1        0.0000
    152 H          -6.9882   -0.9396   24.1216 H       1  UNL1        0.0000
    153 H           4.1492   -5.8615   15.2969 H       1  UNL1        0.0000
    154 H         -11.4500   -5.5933   23.9586 H       1  UNL1        0.0000
    155 H           6.7225    0.0488   15.1769 H       1  UNL1        0.0000
    156 H          -0.5296  -13.0618   24.0885 H       1  UNL1        0.0000
    157 H          -6.9393    1.4777   15.1657 H       1  UNL1        0.0000
    158 H          -2.3863    0.4308   12.9705 H       1  UNL1        0.0000
    159 H           1.4649   -2.1982   13.2763 H       1  UNL1        0.0000
    160 H          -0.9953   -9.6943   18.9633 H       1  UNL1        0.0000
    161 H          -3.6056    2.2263   20.3670 H       1  UNL1        0.0000
    162 H         -10.6135   -3.1839   22.0936 H       1  UNL1        0.0000
    163 H           6.0951   -4.0398   17.2822 H       1  UNL1        0.0000
    164 H          -8.3124   -4.6314   18.7598 H       1  UNL1        0.0000
    165 H          -5.9809    3.8954   17.1969 H       1  UNL1        0.0000
    166 H          -2.4885    5.1704   15.6991 H       1  UNL1        0.0000
    167 H           3.9913   -7.8804   16.4994 H      54  UNL54       0.0000
    168 H           0.2104    0.0694   15.4094 H       1  UNL1        0.0000
    169 H          -4.4741   -6.9245   23.8147 H       1  UNL1        0.0000
    170 H           2.7295   -7.0924   22.8641 H       1  UNL1        0.0000
    171 H           1.2484   -7.5614   23.6114 H       1  UNL1        0.0000
    172 H           3.3037   -2.6587   21.7652 H       1  UNL1        0.0000
    173 H           2.7339   -2.3001   20.1466 H       1  UNL1        0.0000
    174 H           2.2407  -12.0472   22.6740 H       1  UNL1        0.0000
    175 H           0.9616  -10.9466   23.1314 H       1  UNL1        0.0000
    176 C           3.9184   -2.6967   17.8397 C.3     1  UNL1        0.0000
    177 C          -8.4506   -4.5753   21.4940 C.3     1  UNL1        0.0000
    178 C          -0.8129   -9.7836   21.5963 C.3     1  UNL1        0.0000
    179 C          -3.8183    2.3598   17.7074 C.3     1  UNL1        0.0000
    180 C           4.8144   -3.3010   18.8349 C.ar    1  UNL1        0.0000
    181 C          -9.3825   -3.9503   20.5169 C.2     1  UNL1        0.0000
    182 C           0.1273  -10.3979   20.6491 C.2     1  UNL1        0.0000
    183 C          -4.7081    3.0066   18.7071 C.ar    1  UNL1        0.0000
    184 C           4.5657   -3.2261   20.2413 C.ar    1  UNL1        0.0000
    185 C          -9.1661   -4.0703   19.1289 C.3     1  UNL1        0.0000
    186 C           1.2568  -11.1582   21.1022 C.2     1  UNL1        0.0000
    187 C          -5.8029    3.7795   18.2622 C.ar    1  UNL1        0.0000
    188 C          -4.4536    2.8358   20.0620 C.ar    1  UNL1        0.0000
    189 C          -0.1204  -10.2658   19.2652 C.3     1  UNL1        0.0000
    190 C           5.9481   -4.0000   18.3592 C.ar    1  UNL1        0.0000
    191 C         -10.4827   -3.2579   21.0156 C.2     1  UNL1        0.0000
    192 C           4.1302   -5.7824   13.1528 C.2     1  UNL1        0.0000
    193 C          -2.3395    6.0091   13.1778 C.ar    1  UNL1        0.0000
    194 C           6.6146   -0.0193   13.0268 C.ar    1  UNL1        0.0000
    195 C          -6.7437    1.5231   13.0074 C.2     1  UNL1        0.0000
    196 C          -1.1355   -1.9539   18.7126 C.3     1  UNL1        0.0000
    197 C          -5.8916   -9.0483   20.6307 C.2     1  UNL1        0.0000
    198 C           3.9943   -4.3276   13.1296 C.2     1  UNL1        0.0000
    199 C          -2.4323    4.5756   13.1403 C.3     1  UNL1        0.0000
    200 C           5.3168   -0.6362   13.0736 C.3     1  UNL1        0.0000
    201 C          -5.3414    1.9375   13.0319 C.2     1  UNL1        0.0000
    202 C           4.1695   -6.4516   14.3825 C.3     1  UNL1        0.0000
    203 C          -6.9773   -0.3512   25.0354 C.ar    1  UNL1        0.0000
    204 C           7.2699    0.2555   14.2607 C.ar    1  UNL1        0.0000
    205 C         -12.0115   -5.7727   24.8739 C.3     1  UNL1        0.0000
    206 C           2.6743   -6.8170   24.8884 C.ar    1  UNL1        0.0000
    207 C          -7.4409    1.2927   14.2199 C.3     1  UNL1        0.0000
    208 C          -0.4879  -13.5889   25.0375 C.3     1  UNL1        0.0000
    209 C          -2.3258    6.7603   14.4071 C.ar    1  UNL1        0.0000
    210 N          -2.2707    6.1615   15.6452 N.pl3   1  UNL1        0.0000
    211 N           2.0953   -6.9999   23.6494 N.pl3   1  UNL1        0.0000
    212 N           3.4848   -2.5799   20.7726 N.pl3   1  UNL1        0.0000
    213 N           1.5878  -11.3165   22.4196 N.pl3   1  UNL1        0.0000
    214 O           2.7421   -2.2916   18.2055 O.3     1  UNL1        0.0000
    215 O          -7.6816   -5.5262   21.0957 O.3     1  UNL1        0.0000
    216 O          -0.4314   -9.6591   22.8174 O.3     1  UNL1        0.0000
    217 O          -3.8842    2.7894   16.5078 O.3     1  UNL1        0.0000
    218 O          -3.0479    1.4026   18.0938 O.3     1  UNL1        0.0000
    219 O          -1.9833   -9.4151   21.1908 O.3     1  UNL1        0.0000
    220 O           4.3303   -2.6159   16.6280 O.3     1  UNL1        0.0000
    221 O          -8.4926   -4.1390   22.6937 O.3     1  UNL1        0.0000
    222 O           1.6578   -2.8708   15.6290 O.3     1  UNL1        0.0000
    223 O          -5.9884   -5.0122   23.1940 O.3     1  UNL1        0.0000
    224 O           2.5966   -0.5835   16.0789 O.3     1  UNL1        0.0000
    225 O          -7.7406   -6.7369   23.6867 O.3     1  UNL1        0.0000
    226 O          -3.1341   -9.9448   23.7814 O.3     1  UNL1        0.0000
    227 O          -1.3657    1.9506   16.0095 O.3     1  UNL1        0.0000
    228 O          -2.1801   -7.6833   23.3173 O.3     1  UNL1        0.0000
    229 O          -3.0719    0.1935   15.4921 O.3     1  UNL1        0.0000
    230 O          -0.7629  -10.7991   25.0835 O.2     1  UNL1        0.0000
    231 O          -2.5154    3.8742   14.2355 O.3     1  UNL1        0.0000
    232 O           0.0393   -8.0109   25.0784 O.3     1  UNL1        0.0000
    233 O          -4.7513    2.0385   14.1754 O.2     1  UNL1        0.0000
    234 O           4.7775   -0.9363   14.2216 O.3     1  UNL1        0.0000
    235 O          -9.3769   -4.8967   25.0094 O.2     1  UNL1        0.0000
    236 O           3.9819   -3.6907   14.2510 O.2     1  UNL1        0.0000
    237 O          -7.1087   -3.1144   25.0907 O.3     1  UNL1        0.0000
    238 O          -0.1504   -0.4794   16.1300 O.3     1  UNL1        0.0000
    239 O          -4.8524   -7.4832   23.1111 O.3     1  UNL1        0.0000
    240 O           2.3037   -1.7045   13.1972 O.3     1  UNL1        0.0000
    241 O          -2.2640    1.3976   13.0305 O.3     1  UNL1        0.0000
    242 H          -0.8282   -5.4587   21.7783 H       1  UNL1        0.0000
    243 H          -4.7525  -11.1598   19.3848 H       1  UNL1        0.0000
    244 H          -0.0322    3.5576   18.1048 H       1  UNL1        0.0000
    245 H           0.1193   -3.9688   19.9921 H       1  UNL1        0.0000
    246 H          -4.5768   -3.3548   21.5434 H       1  UNL1        0.0000
    247 H          -8.4186   -8.9324   19.7059 H       1  UNL1        0.0000
    248 H          -3.1663   -5.1433   22.5251 H       1  UNL1        0.0000
    249 H          -3.6235   -1.8573   19.7604 H       1  UNL1        0.0000
    250 H           1.2895    1.7066   17.1032 H       1  UNL1        0.0000
    251 H         -12.3476    1.9172   17.6515 H      54  UNL54       0.0000
    252 C          -1.6966   -2.8253   19.7756 C.ar    1  UNL1        0.0000
    253 C          -2.7530   -4.4842   21.7628 C.ar    1  UNL1        0.0000
    254 C           1.7566    2.3820   17.8192 C.ar    1  UNL1        0.0000
    255 C          -6.5220   -9.9540   19.6335 C.2     1  UNL1        0.0000
    256 C          -3.0229   -2.6445   20.2117 C.ar    1  UNL1        0.0000
    257 C          -1.4309   -4.6666   21.3364 C.ar    1  UNL1        0.0000
    258 C           1.0159    3.4333   18.3768 C.ar    1  UNL1        0.0000
    259 C          -5.7873  -11.0180   19.0790 C.3     1  UNL1        0.0000
    260 C           3.0945    2.1846   18.1828 C.ar    1  UNL1        0.0000
    261 C          -7.8647   -9.7556   19.2590 C.3     1  UNL1        0.0000
    262 C          -0.9021   -3.8397   20.3442 C.ar    1  UNL1        0.0000
    263 C          -3.5484   -3.4747   21.2046 C.ar    1  UNL1        0.0000
    264 O           0.0847   -2.1320   18.3583 O.3     1  UNL1        0.0000
    265 O          -6.5587   -8.0232   21.0179 O.2     1  UNL1        0.0000
    266 O          -4.7200   -9.3289   21.0627 O.2     1  UNL1        0.0000
    267 O          -1.8868   -1.0524   18.1946 O.3     1  UNL1        0.0000
    268 N           1.2395    5.6165   40.8703 N.pl3   7  UNL7        0.0000
    269 N           1.1198    3.8582   39.5878 N.pl3   7  UNL7        0.0000
    270 C           1.6064    6.0167   39.5949 C.2     7  UNL7        0.0000
    271 C           1.5357    4.9117   38.7913 C.2     7  UNL7        0.0000
    272 C           2.3237    1.7101   39.2171 C.3     7  UNL7        0.0000
    273 C           1.1984    6.4859   42.0512 C.3     7  UNL7        0.0000
    274 C           0.9399    4.3046   40.8442 C.3     7  UNL7        0.0000
    275 C           0.9913    2.4521   39.1552 C.3     7  UNL7        0.0000
    276 H           1.8690    7.0423   39.3743 H       7  UNL7        0.0000
    277 H           1.7303    4.7814   37.7342 H       7  UNL7        0.0000
    278 H           3.0736    2.1667   38.5588 H       7  UNL7        0.0000
    279 H           2.1931    6.9160   42.2136 H       7  UNL7        0.0000
    280 H           2.7227    1.6814   40.2400 H       7  UNL7        0.0000
    281 H           0.4575    7.2765   41.8891 H       7  UNL7        0.0000
    282 H           2.1851    0.6702   38.8897 H       7  UNL7        0.0000
    283 H           0.5692    2.4766   38.1415 H       7  UNL7        0.0000
    284 H           0.9136    5.8872   42.9211 H       7  UNL7        0.0000
    285 H           0.5828    3.7077   41.6763 H       7  UNL7        0.0000
    286 H           0.2315    1.9971   39.8000 H       7  UNL7        0.0000
    287 TI        -12.1247  -11.9031   37.4356 Ti      8  UNL8        0.0000
    288 TI         -1.2943   -9.0219   28.0708 Ti      1  UNL1        0.0000
    289 TI         -8.0280  -15.8393   35.6156 Ti      8  UNL8        0.0000
    290 TI         -6.5169   -6.6772   29.8426 Ti      1  UNL1        0.0000
    291 TI         -7.5154   -4.9989   27.9382 Ti      1  UNL1        0.0000
    292 TI         -6.1398  -16.0937   37.5690 Ti      8  UNL8        0.0000
    293 TI        -11.1755  -13.6390   35.5441 Ti      8  UNL8        0.0000
    294 TI         -3.2821   -8.7193   29.9183 Ti      1  UNL1        0.0000
    295 H         -11.6229   -8.0060   37.2162 H       1  UNL1        0.0000
    296 H          -0.4855  -12.9279   28.3915 H       1  UNL1        0.0000
    297 H         -16.0846  -12.6597   37.0532 H       2  UNL2        0.0000
    298 H           2.0879   -7.0176   28.2715 H       1  UNL1        0.0000
    299 H          -5.1642  -20.1282   37.1831 H       4  UNL4        0.0000
    300 H         -11.5740   -5.5888   28.2603 H       1  UNL1        0.0000
    301 H          -7.0210   -6.6357   26.0651 H       1  UNL1        0.0000
    302 H          -3.1698   -9.2646   26.3709 H       1  UNL1        0.0000
    303 H          -5.6299  -16.7608   32.0579 H       8  UNL8        0.0000
    304 H          -8.2403   -4.8402   33.4616 H       1  UNL1        0.0000
    305 H         -15.2481  -10.2504   35.1882 H       8  UNL8        0.0000
    306 H           1.4605  -11.1062   30.3768 H       1  UNL1        0.0000
    307 H         -12.9470  -11.6978   31.8544 H       8  UNL8        0.0000
    308 H         -10.6155   -3.1710   30.2915 H       1  UNL1        0.0000
    309 H          -7.1232   -1.8960   28.7937 H       1  UNL1        0.0000
    310 H          -0.6433  -14.9468   29.5940 H      54  UNL54       0.0000
    311 H          -4.4242   -6.9970   28.5040 H       1  UNL1        0.0000
    312 H          -9.1087  -13.9909   36.9093 H       8  UNL8        0.0000
    313 H          -1.9051  -14.1588   35.9587 H       3  UNL3        0.0000
    314 H          -3.3862  -14.6279   36.7060 H       3  UNL3        0.0000
    315 H          -1.3310   -9.7252   34.8598 H       1  UNL1        0.0000
    316 H          -1.9007   -9.3666   33.2412 H       1  UNL1        0.0000
    317 H          -2.3939  -19.1136   35.7686 H       8  UNL8        0.0000
    318 H          -3.6731  -18.0130   36.2260 H       8  UNL8        0.0000
    319 C          -0.7162   -9.7631   30.9343 C.3     1  UNL1        0.0000
    320 C         -13.0853  -11.6417   34.5886 C.3     8  UNL8        0.0000
    321 C          -5.4475  -16.8500   34.6909 C.3     8  UNL8        0.0000
    322 C          -8.4530   -4.7067   30.8020 C.3     1  UNL1        0.0000
    323 C           0.1798  -10.3674   31.9295 C.ar    1  UNL1        0.0000
    324 C         -14.0172  -11.0167   33.6115 C.2     8  UNL8        0.0000
    325 C          -4.5073  -17.4644   33.7437 C.2     8  UNL8        0.0000
    326 C          -9.3428   -4.0599   31.8018 C.ar    1  UNL1        0.0000
    327 C          -0.0690  -10.2925   33.3359 C.ar    1  UNL1        0.0000
    328 C         -13.8008  -11.1367   32.2235 C.3     8  UNL8        0.0000
    329 C          -3.3779  -18.2247   34.1968 C.2     8  UNL8        0.0000
    330 C         -10.4375   -3.2869   31.3568 C.ar    1  UNL1        0.0000
    331 C          -9.0883   -4.2306   33.1566 C.ar    1  UNL1        0.0000
    332 C          -4.7551  -17.3322   32.3598 C.3     8  UNL8        0.0000
    333 C           1.3135  -11.0664   31.4538 C.ar    1  UNL1        0.0000
    334 C         -15.1173  -10.3243   34.1102 C.2     8  UNL8        0.0000
    335 C          -0.5044  -12.8489   26.2474 C.2     1  UNL1        0.0000
    336 C          -6.9742   -1.0573   26.2724 C.ar    1  UNL1        0.0000
    337 C           1.9800   -7.0858   26.1214 C.ar    1  UNL1        0.0000
    338 C         -11.3783   -5.5433   26.1020 C.2     1  UNL1        0.0000
    339 C          -5.7701   -9.0204   31.8072 C.3     1  UNL1        0.0000
    340 C         -10.5262  -16.1147   33.7253 C.2     8  UNL8        0.0000
    341 C          -0.6403  -11.3940   26.2242 C.2     1  UNL1        0.0000
    342 C          -7.0669   -2.4908   26.2349 C.3     1  UNL1        0.0000
    343 C           0.6822   -7.7026   26.1683 C.3     1  UNL1        0.0000
    344 C          -9.9760   -5.1290   26.1265 C.2     1  UNL1        0.0000
    345 C          -0.4651  -13.5180   27.4771 C.3     1  UNL1        0.0000
    346 C         -11.6119   -7.4176   38.1301 C.2     1  UNL1        0.0000
    347 C           2.6353   -6.8110   27.3554 C.ar    1  UNL1        0.0000
    348 C         -16.6461  -12.8391   37.9685 C.3    10  UNL10       0.0000
    349 C          -1.9604  -13.8835   37.9830 C.2     3  UNL3        0.0000
    350 C         -12.0755   -5.7737   27.3145 C.3     1  UNL1        0.0000
    351 C          -5.1226  -20.6554   38.1321 C.3    11  UNL11       0.0000
    352 C          -6.9604   -0.3061   27.5017 C.ar    1  UNL1        0.0000
    353 N          -6.9053   -0.9049   28.7398 N.pl3   1  UNL1        0.0000
    354 N          -2.5394  -14.0663   36.7440 N.pl3   3  UNL3        0.0000
    355 N          -1.1498   -9.6463   33.8672 N.pl3   1  UNL1        0.0000
    356 N          -3.0469  -18.3829   35.5142 N.pl3   8  UNL8        0.0000
    357 O          -1.8925   -9.3580   31.3001 O.3     1  UNL1        0.0000
    358 O         -12.3163  -12.5926   34.1903 O.3     8  UNL8        0.0000
    359 O          -5.0661  -16.7255   35.9120 O.3     8  UNL8        0.0000
    360 O          -8.5188   -4.2770   29.6024 O.3     1  UNL1        0.0000
    361 O          -7.6825   -5.6639   31.1884 O.3     1  UNL1        0.0000
    362 O          -6.6180  -16.4816   34.2854 O.3     8  UNL8        0.0000
    363 O          -0.3043   -9.6824   29.7226 O.3     1  UNL1        0.0000
    364 O         -13.1273  -11.2055   35.7883 O.3     8  UNL8        0.0000
    365 O          -2.9769   -9.9373   28.7236 O.3     1  UNL1        0.0000
    366 O         -10.6231  -12.0786   36.2887 O.3     8  UNL8        0.0000
    367 O          -2.0381   -7.6500   29.1736 O.3     1  UNL1        0.0000
    368 O         -12.3753  -13.8033   36.7813 O.3     8  UNL8        0.0000
    369 O          -7.7687  -17.0113   36.8761 O.3     8  UNL8        0.0000
    370 O          -6.0003   -5.1159   29.1041 O.3     1  UNL1        0.0000
    371 O          -6.8148  -14.7498   36.4119 O.3     8  UNL8        0.0000
    372 O          -7.7065   -6.8730   28.5867 O.3     1  UNL1        0.0000
    373 O          -5.3975  -17.8655   38.1781 O.3     8  UNL8        0.0000
    374 O          -7.1500   -3.1922   27.3301 O.3     1  UNL1        0.0000
    375 O          -4.5954  -15.0773   38.1730 O.3     8  UNL8        0.0000
    376 O          -9.3860   -5.0280   27.2700 O.2     1  UNL1        0.0000
    377 O           0.1428   -8.0028   27.3162 O.3     1  UNL1        0.0000
    378 O         -14.0115  -11.9632   38.1041 O.3     8  UNL8        0.0000
    379 O          -0.6527  -10.7571   27.3456 O.2     1  UNL1        0.0000
    380 O         -11.7433  -10.1808   38.1853 O.3     8  UNL8        0.0000
    381 O          -4.7851   -7.5458   29.2246 O.3     1  UNL1        0.0000
    382 O          -9.4870  -14.5496   36.2057 O.3     8  UNL8        0.0000
    383 O          -2.3310   -8.7709   26.2918 O.3     1  UNL1        0.0000
    384 O          -6.8986   -5.6689   26.1251 O.3     1  UNL1        0.0000
    385 H          -5.4629  -12.5251   34.8729 H       1  UNL1        0.0000
    386 H          -9.3871  -18.2262   32.4794 H       8  UNL8        0.0000
    387 H          -4.6668   -3.5088   31.1994 H       1  UNL1        0.0000
    388 H          -4.5153  -11.0352   33.0867 H       1  UNL1        0.0000
    389 H          -9.2114  -10.4213   34.6380 H       1  UNL1        0.0000
    390 H         -13.0532  -15.9989   32.8005 H       8  UNL8        0.0000
    391 H          -7.8009  -12.2097   35.6197 H       1  UNL1        0.0000
    392 H          -8.2581   -8.9237   32.8550 H       1  UNL1        0.0000
    393 H          -3.3451   -5.3598   30.1978 H       1  UNL1        0.0000
    394 H         -16.9823   -5.1493   30.7461 H      54  UNL54       0.0000
    395 C          -6.3313   -9.8918   32.8702 C.ar    1  UNL1        0.0000
    396 C          -7.3876  -11.5507   34.8574 C.ar    1  UNL1        0.0000
    397 C          -2.8781   -4.6844   30.9138 C.ar    1  UNL1        0.0000
    398 C         -11.1567  -17.0204   32.7281 C.2     8  UNL8        0.0000
    399 C          -7.6575   -9.7109   33.3064 C.ar    1  UNL1        0.0000
    400 C          -6.0655  -11.7330   34.4310 C.ar    1  UNL1        0.0000
    401 C          -3.6187   -3.6331   31.4715 C.ar    1  UNL1        0.0000
    402 C         -10.4219  -18.0845   32.1736 C.3     8  UNL8        0.0000
    403 C          -1.5402   -4.8818   31.2774 C.ar    1  UNL1        0.0000
    404 C         -12.4993  -16.8221   32.3536 C.3     8  UNL8        0.0000
    405 C          -5.5367  -10.9061   33.4388 C.ar    1  UNL1        0.0000
    406 C          -8.1831  -10.5412   34.2992 C.ar    1  UNL1        0.0000
    407 O          -4.5500   -9.1984   31.4530 O.3     1  UNL1        0.0000
    408 O         -11.1933  -15.0896   34.1125 O.2     8  UNL8        0.0000
    409 O          -9.3546  -16.3954   34.1573 O.2     8  UNL8        0.0000
    410 O          -6.5214   -8.1189   31.2892 O.3     1  UNL1        0.0000
    411 N          -3.3952   -1.4499   53.9649 N.pl3  13  UNL13       0.0000
    412 N          -3.5149   -3.2082   52.6824 N.pl3  13  UNL13       0.0000
    413 C          -3.0283   -1.0498   52.6895 C.2    13  UNL13       0.0000
    414 C          -3.0989   -2.1547   51.8859 C.2    13  UNL13       0.0000
    415 C          -2.3109   -5.3564   52.3117 C.3    13  UNL13       0.0000
    416 C          -3.4362   -0.5806   55.1458 C.3    13  UNL13       0.0000
    417 C          -3.6948   -2.7618   53.9388 C.3    13  UNL13       0.0000
    418 C          -3.6433   -4.6144   52.2499 C.3    13  UNL13       0.0000
    419 H          -2.7656   -0.0241   52.4689 H      13  UNL13       0.0000
    420 H          -2.9044   -2.2851   50.8288 H      13  UNL13       0.0000
    421 H          -1.5611   -4.8997   51.6534 H      13  UNL13       0.0000
    422 H          -2.4415   -0.1504   55.3082 H      13  UNL13       0.0000
    423 H          -1.9119   -5.3850   53.3346 H      13  UNL13       0.0000
    424 H          -4.1772    0.2101   54.9837 H      13  UNL13       0.0000
    425 H          -2.4495   -6.3962   51.9843 H      13  UNL13       0.0000
    426 H          -4.0654   -4.5899   51.2361 H      13  UNL13       0.0000
    427 H          -3.7210   -1.1792   56.0157 H      13  UNL13       0.0000
    428 H          -4.0518   -3.3587   54.7709 H      13  UNL13       0.0000
    429 H          -4.4032   -5.0694   52.8946 H      13  UNL13       0.0000
    430 TI         -9.3725   16.8423   11.1899 Ti      1  UNL1        0.0000
    431 TI          1.4580   19.7235    1.8251 Ti      1  UNL1        0.0000
    432 TI         -5.2758   12.9061    9.3699 Ti      1  UNL1        0.0000
    433 TI         -3.7646   22.0682    3.5969 Ti      1  UNL1        0.0000
    434 TI         -4.7632   23.7465    1.6925 Ti      1  UNL1        0.0000
    435 TI         -3.3876   12.6517   11.3233 Ti      1  UNL1        0.0000
    436 TI         -8.4233   15.1064    9.2984 Ti      1  UNL1        0.0000
    437 TI         -0.5298   20.0260    3.6725 Ti      1  UNL1        0.0000
    438 H          -8.8706   20.7394   10.9704 H       1  UNL1        0.0000
    439 H           2.2668   15.8174    2.1458 H       1  UNL1        0.0000
    440 H         -13.3324   16.0856   10.8074 H       1  UNL1        0.0000
    441 H           4.8402   21.7278    2.0257 H       1  UNL1        0.0000
    442 H          -2.4120    8.6172   10.9373 H       1  UNL1        0.0000
    443 H          -8.8217   23.1566    2.0145 H       1  UNL1        0.0000
    444 H          -4.2687   22.1097   -0.1806 H       1  UNL1        0.0000
    445 H          -0.4175   19.4808    0.1251 H       1  UNL1        0.0000
    446 H          -2.8777   11.9846    5.8122 H       1  UNL1        0.0000
    447 H          -5.4880   23.9052    7.2158 H       1  UNL1        0.0000
    448 H         -12.4959   18.4950    8.9425 H       1  UNL1        0.0000
    449 H           4.2128   17.6392    4.1311 H       1  UNL1        0.0000
    450 H         -10.1948   17.0476    5.6087 H       1  UNL1        0.0000
    451 H          -7.8632   25.5744    4.0457 H       1  UNL1        0.0000
    452 H          -4.3709   26.8494    2.5479 H       1  UNL1        0.0000
    453 H           2.1090   13.7986    3.3482 H       1  UNL1        0.0000
    454 H          -1.6720   21.7483    2.2582 H       1  UNL1        0.0000
    455 H          -6.3565   14.7545   10.6635 H       1  UNL1        0.0000
    456 H           0.8472   14.5866    9.7129 H       1  UNL1        0.0000
    457 H          -0.6340   14.1175   10.4603 H       1  UNL1        0.0000
    458 H           1.4213   19.0202    8.6140 H       1  UNL1        0.0000
    459 H           0.8516   19.3788    6.9955 H       1  UNL1        0.0000
    460 H           0.3584    9.6318    9.5229 H       1  UNL1        0.0000
    461 H          -0.9208   10.7323    9.9803 H       1  UNL1        0.0000
    462 C           2.0360   18.9822    4.6886 C.3     1  UNL1        0.0000
    463 C         -10.3330   17.1037    8.3428 C.3     1  UNL1        0.0000
    464 C          -2.6953   11.8954    8.4452 C.3     1  UNL1        0.0000
    465 C          -5.7007   24.0387    4.5562 C.3     1  UNL1        0.0000
    466 C           2.9321   18.3779    5.6838 C.ar    1  UNL1        0.0000
    467 C         -11.2649   17.7287    7.3658 C.2     1  UNL1        0.0000
    468 C          -1.7551   11.2810    7.4980 C.ar    1  UNL1        0.0000
    469 C          -6.5905   24.6855    5.5560 C.ar    1  UNL1        0.0000
    470 C           2.6833   18.4528    7.0902 C.ar    1  UNL1        0.0000
    471 C         -11.0485   17.6087    5.9778 C.3     1  UNL1        0.0000
    472 C          -0.6256   10.5207    7.9511 C.ar    1  UNL1        0.0000
    473 C          -7.6853   25.4585    5.1111 C.ar    1  UNL1        0.0000
    474 C          -6.3360   24.5148    6.9109 C.ar    1  UNL1        0.0000
    475 C          -2.0028   11.4132    6.1141 C.ar    1  UNL1        0.0000
    476 C           4.0657   17.6789    5.2081 C.ar    1  UNL1        0.0000
    477 C         -12.3651   18.4211    7.8645 C.2     1  UNL1        0.0000
    478 C           2.2478   15.8965    0.0017 C.2     1  UNL1        0.0000
    479 C          -4.2219   27.6881    0.0267 C.2     1  UNL1        0.0000
    480 C           4.7323   21.6596   -0.1243 C.2     1  UNL1        0.0000
    481 C          -8.6261   23.2021   -0.1437 C.2     1  UNL1        0.0000
    482 C          -3.0179   19.7250    5.5615 C.3     1  UNL1        0.0000
    483 C          -7.7740   12.6307    7.4796 C.2     1  UNL1        0.0000
    484 C           2.1120   17.3514   -0.0215 C.2     1  UNL1        0.0000
    485 C          -4.3147   26.2546   -0.0108 C.2     1  UNL1        0.0000
    486 C           3.4344   21.0428   -0.0775 C.2     1  UNL1        0.0000
    487 C          -7.2238   23.6164   -0.1193 C.2     1  UNL1        0.0000
    488 C           2.2872   15.2274    1.2313 C.2     1  UNL1        0.0000
    489 C          -8.8597   21.3278   11.8843 C.ar    1  UNL1        0.0000
    490 C           5.3876   21.9344    1.1096 C.2     1  UNL1        0.0000
    491 C         -13.8939   15.9063   11.7228 C.3     1  UNL1        0.0000
    492 C           0.7919   14.8619   11.7373 C.ar    1  UNL1        0.0000
    493 C          -9.3233   22.9716    1.0687 C.3     1  UNL1        0.0000
    494 C          -2.3703    8.0900   11.8864 C.ar    1  UNL1        0.0000
    495 C          -4.2081   28.4393    1.2559 C.2     1  UNL1        0.0000
    496 N          -4.1531   27.8404    2.4941 N.pl3   1  UNL1        0.0000
    497 N           0.2129   14.6791   10.4983 N.pl3   1  UNL1        0.0000
    498 N           1.6024   19.0991    7.6215 N.pl3   1  UNL1        0.0000
    499 N          -0.2946   10.3625    9.2684 N.pl3   1  UNL1        0.0000
    500 O           0.8597   19.3873    5.0544 O.3     1  UNL1        0.0000
    501 O          -9.5640   16.1528    7.9446 O.3     1  UNL1        0.0000
    502 O          -2.3138   12.0199    9.6663 O.3     1  UNL1        0.0000
    503 O          -5.7666   24.4684    3.3566 O.3     1  UNL1        0.0000
    504 O          -4.9302   23.0815    4.9427 O.3     1  UNL1        0.0000
    505 O          -3.8657   12.2638    8.0397 O.3     1  UNL1        0.0000
    506 O           2.4479   19.0630    3.4769 O.3     1  UNL1        0.0000
    507 O         -10.3750   17.5399    9.5426 O.3     1  UNL1        0.0000
    508 O          -0.2246   18.8081    2.4778 O.3     1  UNL1        0.0000
    509 O          -7.8708   16.6667   10.0429 O.3     1  UNL1        0.0000
    510 O           0.7142   21.0954    2.9278 O.3     1  UNL1        0.0000
    511 O          -9.6230   14.9421   10.5356 O.3     1  UNL1        0.0000
    512 O          -5.0165   11.7341   10.6303 O.3     1  UNL1        0.0000
    513 O          -3.2480   23.6295    2.8584 O.3     1  UNL1        0.0000
    514 O          -4.0625   13.9956   10.1661 O.3     1  UNL1        0.0000
    515 O          -4.9543   21.8724    2.3410 O.3     1  UNL1        0.0000
    516 O          -2.6453   10.8799   11.9324 O.3     1  UNL1        0.0000
    517 O          -4.3978   25.5531    1.0844 O.2     1  UNL1        0.0000
    518 O          -1.8431   13.6681   11.9272 O.3     1  UNL1        0.0000
    519 O          -6.6337   23.7174    1.0243 O.2     1  UNL1        0.0000
    520 O           2.8951   20.7426    1.0705 O.2     1  UNL1        0.0000
    521 O         -11.2593   16.7822   11.8583 O.2     1  UNL1        0.0000
    522 O           2.0995   17.9883    1.0999 O.2     1  UNL1        0.0000
    523 O          -8.9911   18.5646   11.9396 O.3     1  UNL1        0.0000
    524 O          -2.0328   21.1996    2.9789 O.3     1  UNL1        0.0000
    525 O          -6.7347   14.1958    9.9599 O.3     1  UNL1        0.0000
    526 O           0.4213   19.9745    0.0461 O.3     1  UNL1        0.0000
    527 O          -4.1463   23.0765   -0.1206 O.3     1  UNL1        0.0000
    528 H          -2.7106   16.2203    8.6271 H       1  UNL1        0.0000
    529 H          -6.6348   10.5192    6.2337 H       1  UNL1        0.0000
    530 H          -1.9146   25.2366    4.9537 H       1  UNL1        0.0000
    531 H          -1.7631   17.7102    6.8410 H       1  UNL1        0.0000
    532 H          -6.4591   18.3241    8.3922 H       1  UNL1        0.0000
    533 H         -10.3010   12.7465    6.5547 H       1  UNL1        0.0000
    534 H          -5.0486   16.5357    9.3739 H       1  UNL1        0.0000
    535 H          -5.5059   19.8217    6.6092 H       1  UNL1        0.0000
    536 H          -0.5929   23.3856    3.9521 H       1  UNL1        0.0000
    537 H         -14.2300   23.5961    4.5003 H      54  UNL54       0.0000
    538 C          -3.5790   18.8536    6.6245 C.ar    1  UNL1        0.0000
    539 C          -4.6354   17.1947    8.6117 C.ar    1  UNL1        0.0000
    540 C          -0.1258   24.0610    4.6680 C.ar    1  UNL1        0.0000
    541 C          -8.4044   11.7250    6.4823 C.2     1  UNL1        0.0000
    542 C          -4.9053   19.0345    7.0606 C.ar    1  UNL1        0.0000
    543 C          -3.3133   17.0124    8.1852 C.ar    1  UNL1        0.0000
    544 C          -0.8665   25.1122    5.2257 C.ar    1  UNL1        0.0000
    545 C          -7.6697   10.6609    5.9278 C.3     1  UNL1        0.0000
    546 C           1.2121   23.8636    5.0317 C.ar    1  UNL1        0.0000
    547 C          -9.7471   11.9233    6.1078 C.3     1  UNL1        0.0000
    548 C          -2.7845   17.8392    7.1931 C.ar    1  UNL1        0.0000
    549 C          -5.4308   18.2042    8.0535 C.ar    1  UNL1        0.0000
    550 O          -1.7977   19.5470    5.2072 O.3     1  UNL1        0.0000
    551 O          -8.4410   13.6558    7.8668 O.2     1  UNL1        0.0000
    552 O          -6.6024   12.3500    7.9115 O.2     1  UNL1        0.0000
    553 O          -3.7692   20.6265    5.0435 O.3     1  UNL1        0.0000
    554 N          -0.6429   27.2954   27.7192 N.pl3  15  UNL15       0.0000
    555 N          -0.7626   25.5372   26.4366 N.pl3  15  UNL15       0.0000
    556 C          -0.2760   27.6956   26.4438 C.2    15  UNL15       0.0000
    557 C          -0.3466   26.5906   25.6402 C.2    15  UNL15       0.0000
    558 C           0.4414   23.3890   26.0660 C.3    15  UNL15       0.0000
    559 C          -0.6840   28.1648   28.9000 C.3    15  UNL15       0.0000
    560 C          -0.9425   25.9836   27.6930 C.3    15  UNL15       0.0000
    561 C          -0.8911   24.1310   26.0041 C.3    15  UNL15       0.0000
    562 H          -0.0134   28.7213   26.2231 H      15  UNL15       0.0000
    563 H          -0.1521   26.4603   24.5831 H      15  UNL15       0.0000
    564 H           1.1912   23.8456   25.4077 H      15  UNL15       0.0000
    565 H           0.3108   28.5949   29.0625 H      15  UNL15       0.0000
    566 H           0.8403   23.3604   27.0888 H      15  UNL15       0.0000
    567 H          -1.4249   28.9555   28.7380 H      15  UNL15       0.0000
    568 H           0.3027   22.3492   25.7386 H      15  UNL15       0.0000
    569 H          -1.3132   24.1555   24.9903 H      15  UNL15       0.0000
    570 H          -0.9688   27.5662   29.7700 H      15  UNL15       0.0000
    571 H          -1.2996   25.3867   28.5252 H      15  UNL15       0.0000
    572 H          -1.6509   23.6760   26.6489 H      15  UNL15       0.0000
    573 TI        -14.0071    9.7758   24.2845 Ti      1  UNL1        0.0000
    574 TI         -3.1766   12.6570   14.9197 Ti      1  UNL1        0.0000
    575 TI         -9.9104    5.8396   22.4645 Ti      1  UNL1        0.0000
    576 TI         -8.3992   15.0018   16.6915 Ti      1  UNL1        0.0000
    577 TI         -9.3978   16.6801   14.7871 Ti      1  UNL1        0.0000
    578 TI         -8.0222    5.5853   24.4179 Ti      1  UNL1        0.0000
    579 TI        -13.0579    8.0399   22.3930 Ti      1  UNL1        0.0000
    580 TI         -5.1645   12.9596   16.7671 Ti      1  UNL1        0.0000
    581 H         -13.5052   13.6729   24.0650 H       1  UNL1        0.0000
    582 H          -2.3679    8.7510   15.2404 H       1  UNL1        0.0000
    583 H         -17.9670    9.0192   23.9020 H       1  UNL1        0.0000
    584 H           0.2055   14.6613   15.1203 H       1  UNL1        0.0000
    585 H          -7.0466    1.5508   24.0320 H       1  UNL1        0.0000
    586 H         -13.4563   16.0902   15.1091 H       1  UNL1        0.0000
    587 H          -8.9034   15.0433   12.9140 H       1  UNL1        0.0000
    588 H          -5.0522   12.4144   13.2197 H       1  UNL1        0.0000
    589 H          -7.5123    4.9182   18.9068 H       1  UNL1        0.0000
    590 H         -10.1227   16.8388   20.3104 H       1  UNL1        0.0000
    591 H         -17.1305   11.4286   22.0371 H       1  UNL1        0.0000
    592 H          -0.4219   10.5727   17.2257 H       1  UNL1        0.0000
    593 H         -14.8294    9.9811   18.7033 H       1  UNL1        0.0000
    594 H         -12.4979   18.5079   17.1403 H       1  UNL1        0.0000
    595 H          -9.0056   19.7829   15.6426 H       1  UNL1        0.0000
    596 H          -2.5257    6.7322   16.4429 H       1  UNL1        0.0000
    597 H          -6.3066   14.6819   15.3528 H       1  UNL1        0.0000
    598 H         -10.9911    7.6880   23.7581 H       1  UNL1        0.0000
    599 H          -3.7875    7.5201   22.8075 H       1  UNL1        0.0000
    600 H          -5.2686    7.0511   23.5549 H       1  UNL1        0.0000
    601 H          -3.2134   11.9538   21.7086 H       1  UNL1        0.0000
    602 H          -3.7831   12.3124   20.0901 H       1  UNL1        0.0000
    603 H          -4.2763    2.5653   22.6175 H       1  UNL1        0.0000
    604 H          -5.5554    3.6659   23.0749 H       1  UNL1        0.0000
    605 C          -2.5986   11.9158   17.7832 C.3     1  UNL1        0.0000
    606 C         -14.9677   10.0372   21.4375 C.3     1  UNL1        0.0000
    607 C          -7.3299    4.8289   21.5398 C.3     1  UNL1        0.0000
    608 C         -10.3354   16.9723   17.6508 C.3     1  UNL1        0.0000
    609 C          -1.7026   11.3115   18.7784 C.ar    1  UNL1        0.0000
    610 C         -15.8996   10.6622   20.4604 C.2     1  UNL1        0.0000
    611 C          -6.3897    4.2146   20.5926 C.ar    1  UNL1        0.0000
    612 C         -11.2252   17.6191   18.6506 C.ar    1  UNL1        0.0000
    613 C          -1.9513   11.3864   20.1848 C.ar    1  UNL1        0.0000
    614 C         -15.6832   10.5423   19.0724 C.3     1  UNL1        0.0000
    615 C          -5.2603    3.4543   21.0457 C.ar    1  UNL1        0.0000
    616 C         -12.3199   18.3920   18.2057 C.ar    1  UNL1        0.0000
    617 C         -10.9707   17.4483   20.0055 C.ar    1  UNL1        0.0000
    618 C          -6.6374    4.3467   19.2087 C.ar    1  UNL1        0.0000
    619 C          -0.5689   10.6125   18.3027 C.ar    1  UNL1        0.0000
    620 C         -16.9997   11.3547   20.9591 C.2     1  UNL1        0.0000
    621 C          -2.3868    8.8301   13.0963 C.ar    1  UNL1        0.0000
    622 C          -8.8566   20.6217   13.1213 C.ar    1  UNL1        0.0000
    623 C           0.0976   14.5932   12.9703 C.ar    1  UNL1        0.0000
    624 C         -13.2607   16.1356   12.9509 C.2     1  UNL1        0.0000
    625 C          -7.6525   12.6586   18.6561 C.3     1  UNL1        0.0000
    626 C         -12.4086    5.5642   20.5742 C.2     1  UNL1        0.0000
    627 C          -2.5227   10.2849   13.0731 C.3     1  UNL1        0.0000
    628 C          -8.9493   19.1881   13.0838 C.3     1  UNL1        0.0000
    629 C          -1.2002   13.9764   13.0171 C.3     1  UNL1        0.0000
    630 C         -11.8584   16.5500   12.9753 C.2     1  UNL1        0.0000
    631 C          -2.3475    8.1610   14.3259 C.ar    1  UNL1        0.0000
    632 C         -13.4943   14.2613   24.9789 C.ar    1  UNL1        0.0000
    633 C           0.7529   14.8680   14.2042 C.ar    1  UNL1        0.0000
    634 C         -18.5285    8.8398   24.8174 C.3     1  UNL1        0.0000
    635 C          -3.8427    7.7955   24.8319 C.ar    1  UNL1        0.0000
    636 C         -13.9579   15.9052   14.1633 C.3     1  UNL1        0.0000
    637 C          -7.0050    1.0236   24.9810 C.ar    1  UNL1        0.0000
    638 C          -8.8428   21.3728   14.3506 C.ar    1  UNL1        0.0000
    639 N          -8.7877   20.7740   15.5887 N.pl3   1  UNL1        0.0000
    640 N          -4.4218    7.6126   23.5929 N.pl3   1  UNL1        0.0000
    641 N          -3.0322   12.0327   20.7161 N.pl3   1  UNL1        0.0000
    642 N          -4.9293    3.2960   22.3631 N.pl3   1  UNL1        0.0000
    643 O          -3.7749   12.3209   18.1490 O.3     1  UNL1        0.0000
    644 O         -14.1987    9.0864   21.0392 O.3     1  UNL1        0.0000
    645 O          -6.9485    4.9534   22.7609 O.3     1  UNL1        0.0000
    646 O         -10.4012   17.4020   16.4512 O.3     1  UNL1        0.0000
    647 O          -9.5649   16.0151   18.0373 O.3     1  UNL1        0.0000
    648 O          -8.5003    5.1974   21.1343 O.3     1  UNL1        0.0000
    649 O          -2.1867   11.9966   16.5715 O.3     1  UNL1        0.0000
    650 O         -15.0097   10.4735   22.6372 O.3     1  UNL1        0.0000
    651 O          -4.8592   11.7417   15.5724 O.3     1  UNL1        0.0000
    652 O         -12.5055    9.6003   23.1375 O.3     1  UNL1        0.0000
    653 O          -3.9204   14.0290   16.0224 O.3     1  UNL1        0.0000
    654 O         -14.2576    7.8756   23.6302 O.3     1  UNL1        0.0000
    655 O          -9.6511    4.6677   23.7249 O.3     1  UNL1        0.0000
    656 O          -7.8827   16.5631   15.9530 O.3     1  UNL1        0.0000
    657 O          -8.6972    6.9292   23.2607 O.3     1  UNL1        0.0000
    658 O          -9.5889   14.8060   15.4356 O.3     1  UNL1        0.0000
    659 O          -7.2799    3.8134   25.0270 O.3     1  UNL1        0.0000
    660 O          -9.0324   18.4867   14.1790 O.3     1  UNL1        0.0000
    661 O          -6.4778    6.6016   25.0219 O.3     1  UNL1        0.0000
    662 O         -11.2684   16.6510   14.1189 O.2     1  UNL1        0.0000
    663 O          -1.7396   13.6762   14.1651 O.3     1  UNL1        0.0000
    664 O         -15.8939    9.7158   24.9529 O.2     1  UNL1        0.0000
    665 O          -2.5351   10.9219   14.1945 O.3     1  UNL1        0.0000
    666 O         -13.6257   11.4981   25.0342 O.3     1  UNL1        0.0000
    667 O          -6.6674   14.1331   16.0735 O.3     1  UNL1        0.0000
    668 O         -11.3694    7.1293   23.0545 O.3     1  UNL1        0.0000
    669 O          -4.2133   12.9080   13.1407 O.3     1  UNL1        0.0000
    670 O          -8.7810   16.0101   12.9740 O.3     1  UNL1        0.0000
    671 H          -7.3453    9.1538   21.7217 H       1  UNL1        0.0000
    672 H         -11.2695    3.4528   19.3283 H       1  UNL1        0.0000
    673 H          -6.5492   18.1701   18.0483 H       1  UNL1        0.0000
    674 H          -6.3977   10.6438   19.9356 H       1  UNL1        0.0000
    675 H         -11.0938   11.2577   21.4868 H       1  UNL1        0.0000
    676 H         -14.9356    5.6801   19.6494 H       1  UNL1        0.0000
    677 H          -9.6833    9.4692   22.4685 H       1  UNL1        0.0000
    678 H         -10.1405   12.7553   19.7038 H       1  UNL1        0.0000
    679 H          -5.2275   16.3192   17.0467 H       1  UNL1        0.0000
    680 H         -18.8647   16.5297   17.5950 H      54  UNL54       0.0000
    681 C          -8.2137   11.7872   19.7191 C.ar    1  UNL1        0.0000
    682 C          -9.2700   10.1283   21.7063 C.ar    1  UNL1        0.0000
    683 C          -4.7605   16.9945   17.7626 C.ar    1  UNL1        0.0000
    684 C         -13.0390    4.6586   19.5769 C.2     1  UNL1        0.0000
    685 C          -9.5399   11.9681   20.1552 C.ar    1  UNL1        0.0000
    686 C          -7.9479    9.9459   21.2799 C.ar    1  UNL1        0.0000
    687 C          -5.5011   18.0458   18.3203 C.ar    1  UNL1        0.0000
    688 C         -12.3043    3.5945   19.0224 C.3     1  UNL1        0.0000
    689 C          -3.4226   16.7971   18.1263 C.ar    1  UNL1        0.0000
    690 C         -14.3817    4.8569   19.2024 C.3     1  UNL1        0.0000
    691 C          -7.4191   10.7728   20.2877 C.ar    1  UNL1        0.0000
    692 C         -10.0655   11.1378   21.1481 C.ar    1  UNL1        0.0000
    693 O          -6.4324   12.4805   18.3018 O.3     1  UNL1        0.0000
    694 O         -13.0757    6.5893   20.9614 O.2     1  UNL1        0.0000
    695 O         -11.2370    5.2836   21.0061 O.2     1  UNL1        0.0000
    696 O          -8.4038   13.5601   18.1381 O.3     1  UNL1        0.0000
    697 N          -5.2775   20.2290   40.8138 N.pl3  17  UNL17       0.0000
    698 N          -5.3973   18.4707   39.5312 N.pl3  17  UNL17       0.0000
    699 C          -4.9106   20.6292   39.5384 C.2    17  UNL17       0.0000
    700 C          -4.9813   19.5242   38.7348 C.2    17  UNL17       0.0000
    701 C          -4.1933   16.3226   39.1606 C.3    17  UNL17       0.0000
    702 C          -5.3186   21.0984   41.9946 C.3    17  UNL17       0.0000
    703 C          -5.5771   18.9171   40.7877 C.3    17  UNL17       0.0000
    704 C          -5.5257   17.0646   39.0987 C.3    17  UNL17       0.0000
    705 H          -4.6480   21.6548   39.3177 H      17  UNL17       0.0000
    706 H          -4.7868   19.3939   37.6777 H      17  UNL17       0.0000
    707 H          -3.4434   16.7792   38.5023 H      17  UNL17       0.0000
    708 H          -4.3239   21.5285   42.1571 H      17  UNL17       0.0000
    709 H          -3.7943   16.2939   40.1834 H      17  UNL17       0.0000
    710 H          -6.0596   21.8890   41.8326 H      17  UNL17       0.0000
    711 H          -4.3319   15.2827   38.8332 H      17  UNL17       0.0000
    712 H          -5.9478   17.0891   38.0850 H      17  UNL17       0.0000
    713 H          -5.6034   20.4997   42.8646 H      17  UNL17       0.0000
    714 H          -5.9342   18.3202   41.6198 H      17  UNL17       0.0000
    715 H          -6.2855   16.6096   39.7435 H      17  UNL17       0.0000
    716 TI        -18.6418    2.7094   37.3791 Ti      1  UNL1        0.0000
    717 TI         -7.8113    5.5906   28.0143 Ti      1  UNL1        0.0000
    718 TI        -14.5451   -1.2268   35.5591 Ti      1  UNL1        0.0000
    719 TI        -13.0339    7.9353   29.7861 Ti      1  UNL1        0.0000
    720 TI        -14.0325    9.6136   27.8817 Ti      1  UNL1        0.0000
    721 TI        -12.6569   -1.4811   37.5125 Ti      1  UNL1        0.0000
    722 TI        -17.6926    0.9735   35.4876 Ti      1  UNL1        0.0000
    723 TI         -9.7991    5.8932   29.8618 Ti      1  UNL1        0.0000
    724 H         -18.1399    6.6065   37.1596 H       5  UNL5        0.0000
    725 H          -7.0025    1.6846   28.3350 H       1  UNL1        0.0000
    726 H         -22.6017    1.9528   36.9966 H       6  UNL6        0.0000
    727 H          -4.4291    7.5949   28.2149 H       1  UNL1        0.0000
    728 H         -11.6813   -5.5157   37.1266 H       1  UNL1        0.0000
    729 H         -18.0910    9.0237   28.2038 H       1  UNL1        0.0000
    730 H         -13.5380    7.9768   26.0086 H       1  UNL1        0.0000
    731 H          -9.6868    5.3479   26.3144 H       1  UNL1        0.0000
    732 H         -12.1470   -2.1483   32.0014 H       1  UNL1        0.0000
    733 H         -14.7573    9.7724   33.4050 H       1  UNL1        0.0000
    734 H         -21.7652    4.3621   35.1317 H       1  UNL1        0.0000
    735 H          -5.0565    3.5063   30.3203 H       1  UNL1        0.0000
    736 H         -19.4641    2.9147   31.7979 H       1  UNL1        0.0000
    737 H         -17.1325   11.4415   30.2349 H       1  UNL1        0.0000
    738 H         -13.6402   12.7165   28.7372 H       1  UNL1        0.0000
    739 H          -7.1603   -0.3343   29.5375 H       1  UNL1        0.0000
    740 H         -10.9413    7.6155   28.4475 H       1  UNL1        0.0000
    741 H         -15.6258    0.6216   36.8527 H       1  UNL1        0.0000
    742 H          -8.4221    0.4537   35.9021 H       7  UNL7        0.0000
    743 H          -9.9033   -0.0154   36.6495 H       7  UNL7        0.0000
    744 H          -7.8480    4.8873   34.8032 H       1  UNL1        0.0000
    745 H          -8.4177    5.2459   33.1847 H       1  UNL1        0.0000
    746 H          -8.9109   -4.5011   35.7121 H       1  UNL1        0.0000
    747 H         -10.1901   -3.4005   36.1695 H       1  UNL1        0.0000
    748 C          -7.2332    4.8494   30.8778 C.3     1  UNL1        0.0000
    749 C         -19.6023    2.9708   34.5321 C.3     1  UNL1        0.0000
    750 C         -11.9646   -2.2375   34.6344 C.3     1  UNL1        0.0000
    751 C         -14.9700    9.9058   30.7454 C.3     1  UNL1        0.0000
    752 C          -6.3372    4.2451   31.8730 C.ar    1  UNL1        0.0000
    753 C         -20.5342    3.5958   33.5550 C.2     1  UNL1        0.0000
    754 C         -11.0244   -2.8519   33.6872 C.ar    1  UNL1        0.0000
    755 C         -15.8598   10.5526   31.7452 C.ar    1  UNL1        0.0000
    756 C          -6.5860    4.3200   33.2794 C.ar    1  UNL1        0.0000
    757 C         -20.3178    3.4758   32.1670 C.3     1  UNL1        0.0000
    758 C          -9.8949   -3.6122   34.1403 C.ar    1  UNL1        0.0000
    759 C         -16.9545   11.3256   31.3003 C.ar    1  UNL1        0.0000
    760 C         -15.6053   10.3819   33.1001 C.ar    1  UNL1        0.0000
    761 C         -11.2721   -2.7197   32.3033 C.ar    1  UNL1        0.0000
    762 C          -5.2036    3.5461   31.3973 C.ar    1  UNL1        0.0000
    763 C         -21.6344    4.2882   34.0537 C.2     1  UNL1        0.0000
    764 C          -7.0215    1.7636   26.1909 C.ar    1  UNL1        0.0000
    765 C         -13.4912   13.5552   26.2159 C.ar    1  UNL1        0.0000
    766 C          -4.5370    7.5267   26.0649 C.ar    1  UNL1        0.0000
    767 C         -17.8954    9.0692   26.0455 C.2     1  UNL1        0.0000
    768 C         -12.2872    5.5922   31.7507 C.3     1  UNL1        0.0000
    769 C         -17.0433   -1.5022   33.6688 C.2     1  UNL1        0.0000
    770 C          -7.1573    3.2185   26.1677 C.3     1  UNL1        0.0000
    771 C         -13.5840   12.1217   26.1784 C.3     1  UNL1        0.0000
    772 C          -5.8349    6.9099   26.1117 C.3     1  UNL1        0.0000
    773 C         -16.4931    9.4835   26.0699 C.2     1  UNL1        0.0000
    774 C          -6.9821    1.0945   27.4206 C.ar    1  UNL1        0.0000
    775 C         -18.1290    7.1949   38.0735 C.2     5  UNL5        0.0000
    776 C          -3.8817    7.8015   27.2988 C.ar    1  UNL1        0.0000
    777 C         -23.1632    1.7734   37.9120 C.3    18  UNL18       0.0000
    778 C          -8.4774    0.7290   37.9265 C.2     7  UNL7        0.0000
    779 C         -18.5926    8.8388   27.2580 C.3     1  UNL1        0.0000
    780 C         -11.6396   -6.0428   38.0756 C.2     1  UNL1        0.0000
    781 C         -13.4774   14.3064   27.4452 C.ar    1  UNL1        0.0000
    782 N         -13.4224   13.7076   28.6833 N.pl3   1  UNL1        0.0000
    783 N          -9.0564    0.5462   36.6875 N.pl3   7  UNL7        0.0000
    784 N          -7.6669    4.9662   33.8107 N.pl3   1  UNL1        0.0000
    785 N          -9.5639   -3.7704   35.4577 N.pl3   1  UNL1        0.0000
    786 O          -8.4096    5.2545   31.2436 O.3     1  UNL1        0.0000
    787 O         -18.8333    2.0199   34.1338 O.3     1  UNL1        0.0000
    788 O         -11.5831   -2.1130   35.8555 O.3     1  UNL1        0.0000
    789 O         -15.0359   10.3355   29.5458 O.3     1  UNL1        0.0000
    790 O         -14.1995    8.9486   31.1319 O.3     1  UNL1        0.0000
    791 O         -13.1350   -1.8691   34.2289 O.3     1  UNL1        0.0000
    792 O          -6.8214    4.9301   29.6661 O.3     1  UNL1        0.0000
    793 O         -19.6443    3.4070   35.7318 O.3     1  UNL1        0.0000
    794 O          -9.4939    4.6753   28.6671 O.3     1  UNL1        0.0000
    795 O         -17.1401    2.5339   36.2321 O.3     1  UNL1        0.0000
    796 O          -8.5551    6.9625   29.1170 O.3     1  UNL1        0.0000
    797 O         -18.8923    0.8092   36.7248 O.3     1  UNL1        0.0000
    798 O         -14.2858   -2.3988   36.8195 O.3     1  UNL1        0.0000
    799 O         -12.5173    9.4966   29.0476 O.3     1  UNL1        0.0000
    800 O         -13.3318   -0.1373   36.3554 O.3     1  UNL1        0.0000
    801 O         -14.2236    7.7395   28.5302 O.3     1  UNL1        0.0000
    802 O         -11.9145   -3.2530   38.1216 O.3     1  UNL1        0.0000
    803 O         -13.6671   11.4203   27.2736 O.3     1  UNL1        0.0000
    804 O         -11.1124   -0.4648   38.1165 O.3     1  UNL1        0.0000
    805 O         -15.9030    9.5845   27.2135 O.2     1  UNL1        0.0000
    806 O          -6.3742    6.6097   27.2597 O.3     1  UNL1        0.0000
    807 O         -20.5285    2.6493   38.0475 O.3     1  UNL1        0.0000
    808 O          -7.1698    3.8554   27.2891 O.3     1  UNL1        0.0000
    809 O         -18.2603    4.4317   38.1288 O.3     1  UNL1        0.0000
    810 O         -11.3021    7.0667   29.1681 O.3     1  UNL1        0.0000
    811 O         -16.0040    0.0629   36.1492 O.3     1  UNL1        0.0000
    812 O          -8.8480    5.8416   26.2353 O.3     1  UNL1        0.0000
    813 O         -13.4156    8.9436   26.0686 O.3     1  UNL1        0.0000
    814 H         -11.9799    2.0874   34.8163 H       1  UNL1        0.0000
    815 H         -15.9041   -3.6137   32.4229 H       1  UNL1        0.0000
    816 H         -11.1839   11.1037   31.1429 H       1  UNL1        0.0000
    817 H         -11.0323    3.5773   33.0302 H       1  UNL1        0.0000
    818 H         -15.7284    4.1912   34.5815 H       1  UNL1        0.0000
    819 H         -19.5702   -1.3864   32.7440 H       1  UNL1        0.0000
    820 H         -14.3179    2.4028   35.5631 H       1  UNL1        0.0000
    821 H         -14.7752    5.6888   32.7984 H       1  UNL1        0.0000
    822 H          -9.8622    9.2527   30.1413 H       1  UNL1        0.0000
    823 H         -23.4993    9.4632   30.6896 H      54  UNL54       0.0000
    824 C         -12.8483    4.7207   32.8137 C.ar    1  UNL1        0.0000
    825 C         -13.9047    3.0618   34.8009 C.ar    1  UNL1        0.0000
    826 C          -9.3951    9.9281   30.8572 C.ar    1  UNL1        0.0000
    827 C         -17.6737   -2.4079   32.6716 C.2     1  UNL1        0.0000
    828 C         -14.1746    4.9016   33.2498 C.ar    1  UNL1        0.0000
    829 C         -12.5826    2.8795   34.3745 C.ar    1  UNL1        0.0000
    830 C         -10.1358   10.9794   31.4149 C.ar    1  UNL1        0.0000
    831 C         -16.9390   -3.4719   32.1171 C.3     1  UNL1        0.0000
    832 C          -8.0572    9.7307   31.2209 C.ar    1  UNL1        0.0000
    833 C         -19.0164   -2.2096   32.2970 C.3     1  UNL1        0.0000
    834 C         -12.0538    3.7064   33.3823 C.ar    1  UNL1        0.0000
    835 C         -14.7001    4.0714   34.2427 C.ar    1  UNL1        0.0000
    836 O         -11.0670    5.4141   31.3964 O.3     1  UNL1        0.0000
    837 O         -17.7103   -0.4771   34.0560 O.2     1  UNL1        0.0000
    838 O         -15.8717   -1.7829   34.1008 O.2     1  UNL1        0.0000
    839 O         -13.0385    6.4936   31.2327 O.3     1  UNL1        0.0000
    840 N          -9.9122   13.1626   53.9084 N.pl3  20  UNL20       0.0000
    841 N         -10.0319   11.4043   52.6259 N.pl3  20  UNL20       0.0000
    842 C          -9.5453   13.5628   52.6330 C.2    20  UNL20       0.0000
    843 C          -9.6159   12.4578   51.8294 C.2    20  UNL20       0.0000
    844 C          -8.8279    9.2562   52.2552 C.3    20  UNL20       0.0000
    845 C          -9.9533   14.0320   55.0893 C.3    20  UNL20       0.0000
    846 C         -10.2118   11.8507   53.8823 C.3    20  UNL20       0.0000
    847 C         -10.1604    9.9981   52.1933 C.3    20  UNL20       0.0000
    848 H          -9.2827   14.5884   52.4123 H      20  UNL20       0.0000
    849 H          -9.4214   12.3275   50.7723 H      20  UNL20       0.0000
    850 H          -8.0781    9.7128   51.5969 H      20  UNL20       0.0000
    851 H          -8.9585   14.4621   55.2517 H      20  UNL20       0.0000
    852 H          -8.4290    9.2275   53.2781 H      20  UNL20       0.0000
    853 H         -10.6942   14.8226   54.9272 H      20  UNL20       0.0000
    854 H          -8.9665    8.2163   51.9278 H      20  UNL20       0.0000
    855 H         -10.5825   10.0226   51.1796 H      20  UNL20       0.0000
    856 H         -10.2381   13.4333   55.9592 H      20  UNL20       0.0000
    857 H         -10.5689   11.2538   54.7144 H      20  UNL20       0.0000
    858 H         -10.9202    9.5431   52.8381 H      20  UNL20       0.0000
    859 TI        -15.8895   31.4548   11.1334 Ti      1  UNL1        0.0000
    860 TI         -5.0590   34.3360    1.7686 Ti      1  UNL1        0.0000
    861 TI        -11.7928   27.5186    9.3134 Ti      1  UNL1        0.0000
    862 TI        -10.2816   36.6807    3.5403 Ti      1  UNL1        0.0000
    863 TI        -11.2802   38.3590    1.6360 Ti      1  UNL1        0.0000
    864 TI         -9.9046   27.2642   11.2667 Ti      1  UNL1        0.0000
    865 TI        -14.9403   29.7189    9.2419 Ti      1  UNL1        0.0000
    866 TI         -7.0468   34.6385    3.6160 Ti      1  UNL1        0.0000
    867 H         -15.3876   35.3519   10.9139 H       1  UNL1        0.0000
    868 H          -4.2502   30.4299    2.0892 H       1  UNL1        0.0000
    869 H         -19.8494   30.6982   10.7509 H       1  UNL1        0.0000
    870 H          -1.6769   36.3403    1.9692 H       1  UNL1        0.0000
    871 H          -8.9290   23.2297   10.8808 H       1  UNL1        0.0000
    872 H         -15.3387   37.7691    1.9580 H       1  UNL1        0.0000
    873 H         -10.7857   36.7222   -0.2371 H       1  UNL1        0.0000
    874 H          -6.9345   34.0933    0.0686 H       1  UNL1        0.0000
    875 H          -9.3947   26.5971    5.7556 H       1  UNL1        0.0000
    876 H         -12.0051   38.5177    7.1593 H       1  UNL1        0.0000
    877 H         -19.0129   33.1075    8.8860 H       1  UNL1        0.0000
    878 H          -2.3043   32.2517    4.0745 H       1  UNL1        0.0000
    879 H         -16.7118   31.6601    5.5521 H       1  UNL1        0.0000
    880 H         -14.3803   40.1869    3.9892 H       1  UNL1        0.0000
    881 H         -10.8879   41.4619    2.4914 H       1  UNL1        0.0000
    882 H          -4.4081   28.4111    3.2917 H       1  UNL1        0.0000
    883 H          -8.1890   36.3608    2.2017 H       1  UNL1        0.0000
    884 H         -12.8735   29.3670   10.6070 H       1  UNL1        0.0000
    885 H          -5.6699   29.1991    9.6564 H       1  UNL1        0.0000
    886 H          -7.1510   28.7300   10.4037 H       1  UNL1        0.0000
    887 H          -5.0957   33.6327    8.5575 H       1  UNL1        0.0000
    888 H          -5.6655   33.9913    6.9390 H       1  UNL1        0.0000
    889 H          -6.1587   24.2443    9.4664 H       1  UNL1        0.0000
    890 H          -7.4378   25.3448    9.9238 H       1  UNL1        0.0000
    891 C          -4.4810   33.5948    4.6321 C.3     1  UNL1        0.0000
    892 C         -16.8500   31.7162    8.2863 C.3     1  UNL1        0.0000
    893 C          -9.2123   26.5079    8.3887 C.3     1  UNL1        0.0000
    894 C         -12.2177   38.6512    4.4997 C.3     1  UNL1        0.0000
    895 C          -3.5850   32.9904    5.6273 C.ar    1  UNL1        0.0000
    896 C         -17.7819   32.3412    7.3093 C.2     1  UNL1        0.0000
    897 C          -8.2721   25.8935    7.4415 C.ar    1  UNL1        0.0000
    898 C         -13.1076   39.2980    5.4995 C.2     1  UNL1        0.0000
    899 C          -3.8337   33.0654    7.0337 C.ar    1  UNL1        0.0000
    900 C         -17.5656   32.2212    5.9213 C.3     1  UNL1        0.0000
    901 C          -7.1427   25.1332    7.8945 C.ar    1  UNL1        0.0000
    902 C         -14.2023   40.0710    5.0546 C.3     1  UNL1        0.0000
    903 C         -12.8531   39.1273    6.8544 C.2     1  UNL1        0.0000
    904 C          -8.5198   26.0257    6.0575 C.ar    1  UNL1        0.0000
    905 C          -2.4513   32.2915    5.1516 C.ar    1  UNL1        0.0000
    906 C         -18.8821   33.0336    7.8080 C.2     1  UNL1        0.0000
    907 C          -4.2692   30.5090   -0.0549 C.2     1  UNL1        0.0000
    908 C         -10.7389   42.3006   -0.0298 C.2     1  UNL1        0.0000
    909 C          -1.7848   36.2721   -0.1809 C.2     1  UNL1        0.0000
    910 C         -15.1431   37.8146   -0.2003 C.2     1  UNL1        0.0000
    911 C          -9.5349   34.3375    5.5049 C.3     1  UNL1        0.0000
    912 C         -14.2910   27.2432    7.4231 C.2     1  UNL1        0.0000
    913 C          -4.4051   31.9639   -0.0781 C.2     1  UNL1        0.0000
    914 C         -10.8317   40.8671   -0.0673 C.2     1  UNL1        0.0000
    915 C          -3.0826   35.6553   -0.1340 C.2     1  UNL1        0.0000
    916 C         -13.7408   38.2289   -0.1758 C.2     1  UNL1        0.0000
    917 C          -4.2299   29.8399    1.1748 C.2     1  UNL1        0.0000
    918 C         -15.3767   35.9403   11.8278 C.3     1  UNL1        0.0000
    919 C          -1.1295   36.5469    1.0531 C.2     1  UNL1        0.0000
    920 C         -20.4109   30.5188   11.6663 C.3     1  UNL1        0.0000
    921 C          -5.7251   29.4744   11.6808 C.ar    1  UNL1        0.0000
    922 C         -15.8403   37.5841    1.0122 C.3     1  UNL1        0.0000
    923 C          -8.8874   22.7025   11.8299 C.ar    1  UNL1        0.0000
    924 C         -10.7252   43.0518    1.1994 C.3     1  UNL1        0.0000
    925 N         -10.6701   42.4530    2.4376 N.3     1  UNL1        0.0000
    926 N          -6.3042   29.2916   10.4418 N.pl3   1  UNL1        0.0000
    927 N          -4.9146   33.7116    7.5650 N.pl3   1  UNL1        0.0000
    928 N          -6.8116   24.9750    9.2119 N.pl3   1  UNL1        0.0000
    929 O          -5.6573   33.9999    4.9979 O.3     1  UNL1        0.0000
    930 O         -16.0811   30.7653    7.8880 O.3     1  UNL1        0.0000
    931 O          -8.8309   26.6324    9.6098 O.3     1  UNL1        0.0000
    932 O         -12.2836   39.0809    3.3001 O.3     1  UNL1        0.0000
    933 O         -11.4473   37.6940    4.8862 O.3     1  UNL1        0.0000
    934 O         -10.3827   26.8763    7.9831 O.3     1  UNL1        0.0000
    935 O          -4.0691   33.6755    3.4203 O.3     1  UNL1        0.0000
    936 O         -16.8921   32.1524    9.4860 O.3     1  UNL1        0.0000
    937 O          -6.7416   33.4206    2.4213 O.3     1  UNL1        0.0000
    938 O         -14.3878   31.2792    9.9864 O.3     1  UNL1        0.0000
    939 O          -5.8028   35.7079    2.8713 O.3     1  UNL1        0.0000
    940 O         -16.1400   29.5546   10.4791 O.3     1  UNL1        0.0000
    941 O         -11.5335   26.3466   10.5738 O.3     1  UNL1        0.0000
    942 O          -9.7651   38.2420    2.8019 O.3     1  UNL1        0.0000
    943 O         -10.5796   28.6081   10.1096 O.3     1  UNL1        0.0000
    944 O         -11.4713   36.4849    2.2844 O.3     1  UNL1        0.0000
    945 O          -9.1623   25.4924   11.8759 O.3     1  UNL1        0.0000
    946 O         -10.9148   40.1656    1.0279 O.2     1  UNL1        0.0000
    947 O          -8.3601   28.2806   11.8707 O.3     1  UNL1        0.0000
    948 O         -13.1507   38.3299    0.9678 O.2     1  UNL1        0.0000
    949 O          -3.6219   35.3551    1.0140 O.2     1  UNL1        0.0000
    950 O         -17.7763   31.3947   11.8018 O.2     1  UNL1        0.0000
    951 O          -4.4175   32.6008    1.0434 O.2     1  UNL1        0.0000
    952 O         -15.5081   33.1771   11.8831 O.2     1  UNL1        0.0000
    953 O          -8.5498   35.8121    2.9224 O.3     1  UNL1        0.0000
    954 O         -13.2518   28.8083    9.9034 O.3     1  UNL1        0.0000
    955 O          -6.0957   34.5870   -0.0104 O.3     1  UNL1        0.0000
    956 O         -10.6634   37.6890   -0.1772 O.3     1  UNL1        0.0000
    957 H          -9.2276   30.8328    8.5706 H       1  UNL1        0.0000
    958 H         -13.1519   25.1317    6.1772 H       1  UNL1        0.0000
    959 H          -8.4316   39.8491    4.8972 H       8  UNL8        0.0000
    960 H          -8.2801   32.3227    6.7845 H       1  UNL1        0.0000
    961 H         -12.9762   32.9366    8.3357 H       1  UNL1        0.0000
    962 H         -16.8180   27.3590    6.4982 H       1  UNL1        0.0000
    963 H         -11.5657   31.1482    9.3174 H       1  UNL1        0.0000
    964 H         -12.0229   34.4342    6.5527 H       1  UNL1        0.0000
    965 H          -7.1099   37.9981    3.8955 H       8  UNL8        0.0000
    966 H         -20.7470   38.2086    4.4438 H      54  UNL54       0.0000
    967 C         -10.0960   33.4661    6.5679 C.ar    1  UNL1        0.0000
    968 C         -11.1524   31.8072    8.5552 C.ar    1  UNL1        0.0000
    969 C          -6.6429   38.6735    4.6115 C.2     8  UNL8        0.0000
    970 C         -14.9214   26.3375    6.4258 C.2     1  UNL1        0.0000
    971 C         -11.4223   33.6470    7.0041 C.ar    1  UNL1        0.0000
    972 C          -9.8303   31.6249    8.1287 C.ar    1  UNL1        0.0000
    973 C          -7.3835   39.7247    5.1692 C.2     8  UNL8        0.0000
    974 C         -14.1867   25.2734    5.8713 C.3     1  UNL1        0.0000
    975 C          -5.3050   38.4761    4.9752 C.3     8  UNL8        0.0000
    976 C         -16.2641   26.5358    6.0513 C.3     1  UNL1        0.0000
    977 C          -9.3015   32.4518    7.1365 C.ar    1  UNL1        0.0000
    978 C         -11.9478   32.8167    7.9970 C.ar    1  UNL1        0.0000
    979 O          -8.3148   34.1595    5.1507 O.3     1  UNL1        0.0000
    980 O         -14.9581   28.2683    7.8102 O.2     1  UNL1        0.0000
    981 O         -13.1194   26.9625    7.8550 O.2     1  UNL1        0.0000
    982 O         -10.2862   35.2390    4.9869 O.3     1  UNL1        0.0000
    983 N          -7.1599   41.9079   27.6627 N.pl3  22  UNL22       0.0000
    984 N          -7.2797   40.1497   26.3801 N.pl3  22  UNL22       0.0000
    985 C          -6.7930   42.3081   26.3873 C.2    22  UNL22       0.0000
    986 C          -6.8637   41.2031   25.5837 C.2    22  UNL22       0.0000
    987 C          -6.0757   38.0015   26.0095 C.3    22  UNL22       0.0000
    988 C          -7.2010   42.7773   28.8435 C.3    22  UNL22       0.0000
    989 C          -7.4595   40.5961   27.6365 C.3    22  UNL22       0.0000
    990 C          -7.4081   38.7435   25.9476 C.3    22  UNL22       0.0000
    991 H          -6.5304   43.3338   26.1666 H      22  UNL22       0.0000
    992 H          -6.6691   41.0728   24.5265 H      22  UNL22       0.0000
    993 H          -5.3258   38.4581   25.3511 H      22  UNL22       0.0000
    994 H          -6.2063   43.2074   29.0060 H      22  UNL22       0.0000
    995 H          -5.6767   37.9729   27.0323 H      22  UNL22       0.0000
    996 H          -7.9419   43.5680   28.6815 H      22  UNL22       0.0000
    997 H          -6.2143   36.9617   25.6820 H      22  UNL22       0.0000
    998 H          -7.8302   38.7680   24.9338 H      22  UNL22       0.0000
    999 H          -7.4858   42.1787   29.7135 H      22  UNL22       0.0000
   1000 H          -7.8166   39.9992   28.4686 H      22  UNL22       0.0000
   1001 H          -8.1679   38.2885   26.5923 H      22  UNL22       0.0000
   1002 TI        -20.5241   24.3883   24.2280 Ti      1  UNL1        0.0000
   1003 TI         -9.6937   27.2696   14.8632 Ti      1  UNL1        0.0000
   1004 TI        -16.4275   20.4521   22.4080 Ti      1  UNL1        0.0000
   1005 TI        -14.9163   29.6143   16.6350 Ti      1  UNL1        0.0000
   1006 TI        -15.9148   31.2926   14.7306 Ti      1  UNL1        0.0000
   1007 TI        -14.5393   20.1978   24.3614 Ti      1  UNL1        0.0000
   1008 TI        -19.5749   22.6525   22.3365 Ti      1  UNL1        0.0000
   1009 TI        -11.6815   27.5721   16.7106 Ti      1  UNL1        0.0000
   1010 H         -20.0223   28.2854   24.0085 H       1  UNL1        0.0000
   1011 H          -8.8849   23.3635   15.1838 H       1  UNL1        0.0000
   1012 H         -24.4840   23.6317   23.8455 H       1  UNL1        0.0000
   1013 H          -6.3115   29.2739   15.0638 H       1  UNL1        0.0000
   1014 H         -13.5636   16.1633   23.9754 H       1  UNL1        0.0000
   1015 H         -19.9734   30.7027   15.0526 H       1  UNL1        0.0000
   1016 H         -15.4204   29.6558   12.8575 H       1  UNL1        0.0000
   1017 H         -11.5692   27.0269   13.1632 H       1  UNL1        0.0000
   1018 H         -14.0293   19.5307   18.8503 H       1  UNL1        0.0000
   1019 H         -16.6397   31.4513   20.2539 H       1  UNL1        0.0000
   1020 H         -23.6476   26.0411   21.9806 H       1  UNL1        0.0000
   1021 H          -6.9389   25.1852   17.1692 H       1  UNL1        0.0000
   1022 H         -21.3465   24.5936   18.6467 H       1  UNL1        0.0000
   1023 H         -19.0149   33.1204   17.0838 H       1  UNL1        0.0000
   1024 H         -15.5226   34.3954   15.5860 H       1  UNL1        0.0000
   1025 H          -9.0427   21.3447   16.3863 H       1  UNL1        0.0000
   1026 H         -12.8236   29.2944   15.2963 H       1  UNL1        0.0000
   1027 H         -17.5082   22.3005   23.7016 H       1  UNL1        0.0000
   1028 H         -10.3045   22.1327   22.7510 H       1  UNL1        0.0000
   1029 H         -11.7856   21.6636   23.4984 H       1  UNL1        0.0000
   1030 H          -9.7304   26.5663   21.6521 H       1  UNL1        0.0000
   1031 H         -10.3001   26.9249   20.0336 H       1  UNL1        0.0000
   1032 H         -10.7933   17.1778   22.5610 H       1  UNL1        0.0000
   1033 H         -12.0725   18.2784   23.0184 H       1  UNL1        0.0000
   1034 C          -9.1156   26.5283   17.7267 C.3     1  UNL1        0.0000
   1035 C         -21.4847   24.6497   21.3809 C.3     1  UNL1        0.0000
   1036 C         -13.8470   19.4414   21.4833 C.3     1  UNL1        0.0000
   1037 C         -16.8524   31.5848   17.5943 C.3     1  UNL1        0.0000
   1038 C          -8.2196   25.9240   18.7219 C.ar    1  UNL1        0.0000
   1039 C         -22.4166   25.2747   20.4039 C.2     1  UNL1        0.0000
   1040 C         -12.9068   18.8271   20.5361 C.ar    1  UNL1        0.0000
   1041 C         -17.7422   32.2316   18.5941 C.2     1  UNL1        0.0000
   1042 C          -8.4684   25.9989   20.1283 C.ar    1  UNL1        0.0000
   1043 C         -22.2002   25.1548   19.0159 C.3     1  UNL1        0.0000
   1044 C         -11.7773   18.0668   20.9891 C.ar    1  UNL1        0.0000
   1045 C         -18.8369   33.0045   18.1492 C.3     1  UNL1        0.0000
   1046 C         -17.4877   32.0608   19.9490 C.2     1  UNL1        0.0000
   1047 C         -13.1545   18.9592   19.1522 C.ar    1  UNL1        0.0000
   1048 C          -7.0859   25.2250   18.2462 C.ar    1  UNL1        0.0000
   1049 C         -23.5168   25.9672   20.9026 C.2     1  UNL1        0.0000
   1050 C          -8.9039   23.4426   13.0398 C.ar    1  UNL1        0.0000
   1051 C         -15.3736   35.2342   13.0648 C.2     1  UNL1        0.0000
   1052 C          -6.4194   29.2057   12.9137 C.ar    1  UNL1        0.0000
   1053 C         -19.7778   30.7481   12.8944 C.2     1  UNL1        0.0000
   1054 C         -14.1695   27.2711   18.5995 C.3     1  UNL1        0.0000
   1055 C         -18.9256   20.1767   20.5177 C.2     1  UNL1        0.0000
   1056 C          -9.0397   24.8974   13.0166 C.3     1  UNL1        0.0000
   1057 C         -15.4663   33.8006   13.0273 C.2     1  UNL1        0.0000
   1058 C          -7.7173   28.5889   12.9606 C.3     1  UNL1        0.0000
   1059 C         -18.3754   31.1625   12.9188 C.2     1  UNL1        0.0000
   1060 C          -8.8645   22.7735   14.2694 C.ar    1  UNL1        0.0000
   1061 C         -20.0113   28.8738   24.9224 C.3     1  UNL1        0.0000
   1062 C          -5.7641   29.4805   14.1477 C.ar    1  UNL1        0.0000
   1063 C         -25.0455   23.4523   24.7609 C.3     1  UNL1        0.0000
   1064 C         -10.3598   22.4080   24.7754 C.ar    1  UNL1        0.0000
   1065 C         -20.4749   30.5177   14.1068 C.3     1  UNL1        0.0000
   1066 C         -13.5220   15.6361   24.9245 C.ar    1  UNL1        0.0000
   1067 C         -15.3598   35.9854   14.2940 C.3     1  UNL1        0.0000
   1068 N         -15.3048   35.3865   15.5322 N.3     1  UNL1        0.0000
   1069 N         -10.9388   22.2251   23.5364 N.pl3   1  UNL1        0.0000
   1070 N          -9.5493   26.6452   20.6596 N.pl3   1  UNL1        0.0000
   1071 N         -11.4463   17.9085   22.3065 N.pl3   1  UNL1        0.0000
   1072 O         -10.2920   26.9334   18.0925 O.3     1  UNL1        0.0000
   1073 O         -20.7157   23.6989   20.9827 O.3     1  UNL1        0.0000
   1074 O         -13.4655   19.5659   22.7044 O.3     1  UNL1        0.0000
   1075 O         -16.9183   32.0145   16.3947 O.3     1  UNL1        0.0000
   1076 O         -16.0819   30.6276   17.9808 O.3     1  UNL1        0.0000
   1077 O         -15.0174   19.8099   21.0778 O.3     1  UNL1        0.0000
   1078 O          -8.7038   26.6091   16.5149 O.3     1  UNL1        0.0000
   1079 O         -21.5267   25.0860   22.5807 O.3     1  UNL1        0.0000
   1080 O         -11.3763   26.3542   15.5159 O.3     1  UNL1        0.0000
   1081 O         -19.0225   24.2128   23.0810 O.3     1  UNL1        0.0000
   1082 O         -10.4375   28.6415   15.9659 O.3     1  UNL1        0.0000
   1083 O         -20.7747   22.4881   23.5737 O.3     1  UNL1        0.0000
   1084 O         -16.1682   19.2802   23.6684 O.3     1  UNL1        0.0000
   1085 O         -14.3997   31.1756   15.8965 O.3     1  UNL1        0.0000
   1086 O         -15.2142   21.5417   23.2042 O.3     1  UNL1        0.0000
   1087 O         -16.1059   29.4185   15.3791 O.3     1  UNL1        0.0000
   1088 O         -13.7969   18.4259   24.9705 O.3     1  UNL1        0.0000
   1089 O         -15.5495   33.0992   14.1225 O.2     1  UNL1        0.0000
   1090 O         -12.9948   21.2141   24.9653 O.3     1  UNL1        0.0000
   1091 O         -17.7854   31.2635   14.0624 O.2     1  UNL1        0.0000
   1092 O          -8.2566   28.2887   14.1086 O.3     1  UNL1        0.0000
   1093 O         -22.4109   24.3283   24.8964 O.2     1  UNL1        0.0000
   1094 O          -9.0522   25.5344   14.1380 O.3     1  UNL1        0.0000
   1095 O         -20.1427   26.1106   24.9777 O.2     1  UNL1        0.0000
   1096 O         -13.1845   28.7457   16.0170 O.3     1  UNL1        0.0000
   1097 O         -17.8864   21.7418   22.9980 O.3     1  UNL1        0.0000
   1098 O         -10.7304   27.5205   13.0842 O.3     1  UNL1        0.0000
   1099 O         -15.2980   30.6226   12.9175 O.3     1  UNL1        0.0000
   1100 H         -13.8623   23.7663   21.6652 H       1  UNL1        0.0000
   1101 H         -17.7865   18.0653   19.2718 H       1  UNL1        0.0000
   1102 H         -13.0663   32.7826   17.9918 H       9  UNL9        0.0000
   1103 H         -12.9147   25.2563   19.8791 H       1  UNL1        0.0000
   1104 H         -17.6108   25.8702   21.4303 H       1  UNL1        0.0000
   1105 H         -21.4526   20.2926   19.5928 H       1  UNL1        0.0000
   1106 H         -16.2003   24.0817   22.4120 H       1  UNL1        0.0000
   1107 H         -16.6575   27.3678   19.6473 H       1  UNL1        0.0000
   1108 H         -11.7446   30.9317   16.9902 H       9  UNL9        0.0000
   1109 H         -25.3817   31.1422   17.5384 H      54  UNL54       0.0000
   1110 C         -14.7307   26.3997   19.6626 C.ar    1  UNL1        0.0000
   1111 C         -15.7870   24.7408   21.6498 C.ar    1  UNL1        0.0000
   1112 C         -11.2775   31.6070   17.7061 C.2     9  UNL9        0.0000
   1113 C         -19.5561   19.2711   19.5204 C.2     1  UNL1        0.0000
   1114 C         -16.0569   26.5806   20.0987 C.ar    1  UNL1        0.0000
   1115 C         -14.4650   24.5585   21.2233 C.ar    1  UNL1        0.0000
   1116 C         -12.0181   32.6583   18.2638 C.3     9  UNL9        0.0000
   1117 C         -18.8213   18.2070   18.9659 C.3     1  UNL1        0.0000
   1118 C          -9.9396   31.4097   18.0698 C.2     9  UNL9        0.0000
   1119 C         -20.8988   19.4694   19.1459 C.3     1  UNL1        0.0000
   1120 C         -13.9362   25.3853   20.2311 C.ar    1  UNL1        0.0000
   1121 C         -16.5825   25.7503   21.0916 C.ar    1  UNL1        0.0000
   1122 O         -12.9494   27.0930   18.2453 O.3     1  UNL1        0.0000
   1123 O         -19.5927   21.2018   20.9048 O.2     1  UNL1        0.0000
   1124 O         -17.7540   19.8961   20.9496 O.2     1  UNL1        0.0000
   1125 O         -14.9209   28.1726   18.0815 O.3     1  UNL1        0.0000
   1126 N         -11.7946   34.8415   40.7573 N.pl3  24  UNL24       0.0000
   1127 N         -11.9143   33.0832   39.4747 N.pl3  24  UNL24       0.0000
   1128 C         -11.4277   35.2417   39.4819 C.2    24  UNL24       0.0000
   1129 C         -11.4983   34.1367   38.6783 C.2    24  UNL24       0.0000
   1130 C         -10.7103   30.9351   39.1041 C.3    24  UNL24       0.0000
   1131 C         -11.8356   35.7109   41.9381 C.3    24  UNL24       0.0000
   1132 C         -12.0942   33.5296   40.7311 C.3    24  UNL24       0.0000
   1133 C         -12.0427   31.6771   39.0422 C.3    24  UNL24       0.0000
   1134 H         -11.1650   36.2674   39.2612 H      24  UNL24       0.0000
   1135 H         -11.3038   34.0064   37.6212 H      24  UNL24       0.0000
   1136 H          -9.9605   31.3917   38.4458 H      24  UNL24       0.0000
   1137 H         -10.8409   36.1410   42.1006 H      24  UNL24       0.0000
   1138 H         -10.3114   30.9064   40.1269 H      24  UNL24       0.0000
   1139 H         -12.5766   36.5015   41.7761 H      24  UNL24       0.0000
   1140 H         -10.8489   29.8952   38.7767 H      24  UNL24       0.0000
   1141 H         -12.4648   31.7016   38.0284 H      24  UNL24       0.0000
   1142 H         -12.1205   35.1122   42.8081 H      24  UNL24       0.0000
   1143 H         -12.4513   32.9327   41.5633 H      24  UNL24       0.0000
   1144 H         -12.8026   31.2221   39.6870 H      24  UNL24       0.0000
   1145 TI        -25.1588   17.3219   37.3226 Ti      1  UNL1        0.0000
   1146 TI        -14.3283   20.2031   27.9578 Ti      1  UNL1        0.0000
   1147 TI        -21.0621   13.3857   35.5026 Ti      1  UNL1        0.0000
   1148 TI        -19.5509   22.5478   29.7296 Ti      1  UNL1        0.0000
   1149 TI        -20.5495   24.2262   27.8252 Ti      1  UNL1        0.0000
   1150 TI        -19.1739   13.1314   37.4560 Ti      1  UNL1        0.0000
   1151 TI        -24.2096   15.5860   35.4311 Ti      1  UNL1        0.0000
   1152 TI        -16.3161   20.5057   29.8052 Ti      1  UNL1        0.0000
   1153 H         -24.6569   21.2190   37.1031 H      10  UNL10       0.0000
   1154 H         -13.5195   16.2971   28.2785 H       1  UNL1        0.0000
   1155 H         -29.1187   16.5653   36.9401 H      11  UNL11       0.0000
   1156 H         -10.9462   22.2074   28.1584 H       1  UNL1        0.0000
   1157 H         -18.1983    9.0968   37.0700 H       5  UNL5        0.0000
   1158 H         -24.6080   23.6363   28.1472 H       1  UNL1        0.0000
   1159 H         -20.0550   22.5894   25.9521 H       1  UNL1        0.0000
   1160 H         -16.2038   19.9604   26.2578 H       1  UNL1        0.0000
   1161 H         -18.6640   12.4643   31.9449 H       1  UNL1        0.0000
   1162 H         -21.2744   24.3849   33.3485 H       1  UNL1        0.0000
   1163 H         -28.2822   18.9746   35.0752 H       1  UNL1        0.0000
   1164 H         -11.5736   18.1188   30.2638 H       1  UNL1        0.0000
   1165 H         -25.9811   17.5272   31.7414 H       1  UNL1        0.0000
   1166 H         -23.6496   26.0540   30.1784 H       1  UNL1        0.0000
   1167 H         -20.1572   27.3290   28.6806 H       1  UNL1        0.0000
   1168 H         -13.6774   14.2782   29.4809 H       1  UNL1        0.0000
   1169 H         -17.4583   22.2280   28.3909 H       1  UNL1        0.0000
   1170 H         -22.1428   15.2341   36.7962 H       1  UNL1        0.0000
   1171 H         -14.9392   15.0662   35.8456 H      12  UNL12       0.0000
   1172 H         -16.4203   14.5972   36.5930 H      12  UNL12       0.0000
   1173 H         -14.3650   19.4999   34.7467 H       1  UNL1        0.0000
   1174 H         -14.9348   19.8584   33.1282 H       1  UNL1        0.0000
   1175 H         -15.4280   10.1114   35.6556 H       1  UNL1        0.0000
   1176 H         -16.7071   11.2120   36.1130 H       1  UNL1        0.0000
   1177 C         -13.7503   19.4619   30.8213 C.3     1  UNL1        0.0000
   1178 C         -26.1193   17.5833   34.4755 C.3     1  UNL1        0.0000
   1179 C         -18.4816   12.3750   34.5779 C.3     1  UNL1        0.0000
   1180 C         -21.4870   24.5184   30.6889 C.3     1  UNL1        0.0000
   1181 C         -12.8543   18.8576   31.8165 C.ar    1  UNL1        0.0000
   1182 C         -27.0512   18.2083   33.4985 C.2     1  UNL1        0.0000
   1183 C         -17.5414   11.7607   33.6307 C.ar    1  UNL1        0.0000
   1184 C         -22.3768   25.1652   31.6887 C.2     1  UNL1        0.0000
   1185 C         -13.1030   18.9325   33.2229 C.ar    1  UNL1        0.0000
   1186 C         -26.8348   18.0883   32.1105 C.3     1  UNL1        0.0000
   1187 C         -16.4119   11.0004   34.0838 C.ar    1  UNL1        0.0000
   1188 C         -23.4716   25.9381   31.2438 C.3     1  UNL1        0.0000
   1189 C         -22.1224   24.9944   33.0436 C.2     1  UNL1        0.0000
   1190 C         -17.7891   11.8928   32.2468 C.ar    1  UNL1        0.0000
   1191 C         -11.7206   18.1586   31.3408 C.ar    1  UNL1        0.0000
   1192 C         -28.1514   18.9007   33.9972 C.2     1  UNL1        0.0000
   1193 C         -13.5385   16.3761   26.1344 C.ar    1  UNL1        0.0000
   1194 C         -20.0082   28.1677   26.1594 C.2     1  UNL1        0.0000
   1195 C         -11.0541   22.1393   26.0084 C.ar    1  UNL1        0.0000
   1196 C         -24.4124   23.6817   25.9890 C.2     1  UNL1        0.0000
   1197 C         -18.8042   20.2047   31.6942 C.3     1  UNL1        0.0000
   1198 C         -23.5603   13.1103   33.6123 C.2     1  UNL1        0.0000
   1199 C         -13.6744   17.8310   26.1112 C.3     1  UNL1        0.0000
   1200 C         -20.1010   26.7342   26.1219 C.2     1  UNL1        0.0000
   1201 C         -12.3519   21.5224   26.0552 C.3     1  UNL1        0.0000
   1202 C         -23.0101   24.0960   26.0134 C.2     1  UNL1        0.0000
   1203 C         -13.4992   15.7070   27.3640 C.ar    1  UNL1        0.0000
   1204 C         -24.6460   21.8074   38.0170 C.3    25  UNL25       0.0000
   1205 C         -10.3988   22.4141   27.2423 C.ar    1  UNL1        0.0000
   1206 C         -29.6802   16.3859   37.8555 C.3    26  UNL26       0.0000
   1207 C         -14.9944   15.3415   37.8700 C.2    12  UNL12       0.0000
   1208 C         -25.1096   23.4513   27.2014 C.3     1  UNL1        0.0000
   1209 C         -18.1567    8.5697   38.0191 C.2     5  UNL5        0.0000
   1210 C         -19.9945   28.9189   27.3886 C.3     1  UNL1        0.0000
   1211 N         -19.9394   28.3201   28.6268 N.3     1  UNL1        0.0000
   1212 N         -15.5734   15.1587   36.6310 N.pl3  12  UNL12       0.0000
   1213 N         -14.1839   19.5787   33.7542 N.pl3   1  UNL1        0.0000
   1214 N         -16.0809   10.8421   35.4011 N.pl3   1  UNL1        0.0000
   1215 O         -14.9266   19.8670   31.1871 O.3     1  UNL1        0.0000
   1216 O         -25.3503   16.6324   34.0773 O.3     1  UNL1        0.0000
   1217 O         -18.1001   12.4995   35.7990 O.3     1  UNL1        0.0000
   1218 O         -21.5529   24.9480   29.4893 O.3     1  UNL1        0.0000
   1219 O         -20.7166   23.5611   31.0754 O.3     1  UNL1        0.0000
   1220 O         -19.6520   12.7434   34.1724 O.3     1  UNL1        0.0000
   1221 O         -13.3384   19.5426   29.6096 O.3     1  UNL1        0.0000
   1222 O         -26.1614   18.0195   35.6753 O.3     1  UNL1        0.0000
   1223 O         -16.0109   19.2878   28.6105 O.3     1  UNL1        0.0000
   1224 O         -23.6571   17.1464   36.1756 O.3     1  UNL1        0.0000
   1225 O         -15.0721   21.5751   29.0605 O.3     1  UNL1        0.0000
   1226 O         -25.4093   15.4217   36.6683 O.3     1  UNL1        0.0000
   1227 O         -20.8028   12.2137   36.7630 O.3     1  UNL1        0.0000
   1228 O         -19.0344   24.1092   28.9911 O.3     1  UNL1        0.0000
   1229 O         -19.8489   14.4752   36.2988 O.3     1  UNL1        0.0000
   1230 O         -20.7406   22.3520   28.4737 O.3     1  UNL1        0.0000
   1231 O         -18.4316   11.3595   38.0651 O.3     1  UNL1        0.0000
   1232 O         -20.1841   26.0328   27.2171 O.2     1  UNL1        0.0000
   1233 O         -17.6294   14.1477   38.0599 O.3     1  UNL1        0.0000
   1234 O         -22.4200   24.1970   27.1570 O.2     1  UNL1        0.0000
   1235 O         -12.8912   21.2222   27.2032 O.3     1  UNL1        0.0000
   1236 O         -27.0456   17.2619   37.9910 O.3     1  UNL1        0.0000
   1237 O         -13.6868   18.4679   27.2326 O.3     1  UNL1        0.0000
   1238 O         -24.7774   19.0442   38.0723 O.3     1  UNL1        0.0000
   1239 O         -17.8191   21.6792   29.1116 O.3     1  UNL1        0.0000
   1240 O         -22.5211   14.6754   36.0926 O.3     1  UNL1        0.0000
   1241 O         -15.3650   20.4541   26.1788 O.3     1  UNL1        0.0000
   1242 O         -19.9327   23.5561   26.0121 O.3     1  UNL1        0.0000
   1243 H         -18.4969   16.6999   34.7598 H       1  UNL1        0.0000
   1244 H         -22.4212   10.9988   32.3664 H       1  UNL1        0.0000
   1245 H         -17.7009   25.7162   31.0864 H      13  UNL13       0.0000
   1246 H         -17.5494   18.1898   32.9737 H       1  UNL1        0.0000
   1247 H         -22.2455   18.8037   34.5249 H       1  UNL1        0.0000
   1248 H         -26.0873   13.2262   32.6874 H       1  UNL1        0.0000
   1249 H         -20.8350   17.0153   35.5066 H       1  UNL1        0.0000
   1250 H         -21.2922   20.3013   32.7419 H       1  UNL1        0.0000
   1251 H         -16.3792   23.8652   30.0848 H      13  UNL13       0.0000
   1252 H         -30.0163   24.0757   30.6330 H      54  UNL54       0.0000
   1253 C         -19.3653   19.3332   32.7572 C.ar    1  UNL1        0.0000
   1254 C         -20.4217   17.6743   34.7444 C.ar    1  UNL1        0.0000
   1255 C         -15.9121   24.5406   30.8007 C.2    13  UNL13       0.0000
   1256 C         -24.1907   12.2046   32.6150 C.2     1  UNL1        0.0000
   1257 C         -20.6916   19.5141   33.1933 C.ar    1  UNL1        0.0000
   1258 C         -19.0996   17.4920   34.3179 C.ar    1  UNL1        0.0000
   1259 C         -16.6528   25.5919   31.3584 C.2    13  UNL13       0.0000
   1260 C         -23.4560   11.1406   32.0605 C.3     1  UNL1        0.0000
   1261 C         -14.5743   24.3432   31.1644 C.3    13  UNL13       0.0000
   1262 C         -25.5334   12.4030   32.2405 C.3     1  UNL1        0.0000
   1263 C         -18.5708   18.3189   33.3258 C.ar    1  UNL1        0.0000
   1264 C         -21.2171   18.6839   34.1862 C.ar    1  UNL1        0.0000
   1265 O         -17.5841   20.0266   31.3399 O.3     1  UNL1        0.0000
   1266 O         -24.2274   14.1354   33.9995 O.2     1  UNL1        0.0000
   1267 O         -22.3887   12.8296   34.0442 O.2     1  UNL1        0.0000
   1268 O         -19.5555   21.1061   31.1762 O.3     1  UNL1        0.0000
   1269 N         -16.4292   27.7751   53.8519 N.pl3  28  UNL28       0.0000
   1270 N         -16.5489   26.0168   52.5693 N.pl3  28  UNL28       0.0000
   1271 C         -16.0623   28.1753   52.5765 C.2    28  UNL28       0.0000
   1272 C         -16.1330   27.0703   51.7729 C.2    28  UNL28       0.0000
   1273 C         -15.3450   23.8687   52.1987 C.3    28  UNL28       0.0000
   1274 C         -16.4703   28.6445   55.0327 C.3    28  UNL28       0.0000
   1275 C         -16.7288   26.4632   53.8257 C.3    28  UNL28       0.0000
   1276 C         -16.6774   24.6107   52.1368 C.3    28  UNL28       0.0000
   1277 H         -15.7997   29.2009   52.3558 H      28  UNL28       0.0000
   1278 H         -15.9384   26.9400   50.7158 H      28  UNL28       0.0000
   1279 H         -14.5951   24.3253   51.5404 H      28  UNL28       0.0000
   1280 H         -15.4756   29.0746   55.1952 H      28  UNL28       0.0000
   1281 H         -14.9460   23.8400   53.2215 H      28  UNL28       0.0000
   1282 H         -17.2112   29.4351   54.8707 H      28  UNL28       0.0000
   1283 H         -15.4836   22.8288   51.8713 H      28  UNL28       0.0000
   1284 H         -17.0995   24.6351   51.1230 H      28  UNL28       0.0000
   1285 H         -16.7551   28.0458   55.9027 H      28  UNL28       0.0000
   1286 H         -17.0859   25.8663   54.6579 H      28  UNL28       0.0000
   1287 H         -17.4372   24.1557   52.7816 H      28  UNL28       0.0000
   1288 TI         13.1440    1.6725   11.3360 Ti      1  UNL1        0.0000
   1289 TI         23.9745    4.5537    1.9712 Ti      1  UNL1        0.0000
   1290 TI         17.2407   -2.2637    9.5160 Ti      1  UNL1        0.0000
   1291 TI         18.7519    6.8984    3.7430 Ti      1  UNL1        0.0000
   1292 TI         17.7533    8.5767    1.8386 Ti      1  UNL1        0.0000
   1293 TI         19.1289   -2.5180   11.4694 Ti      1  UNL1        0.0000
   1294 TI         14.0932   -0.0634    9.4445 Ti      1  UNL1        0.0000
   1295 TI         21.9867    4.8563    3.8186 Ti      1  UNL1        0.0000
   1296 H          13.6459    5.5696   11.1165 H       1  UNL1        0.0000
   1297 H          24.7833    0.6477    2.2918 H       1  UNL1        0.0000
   1298 H           9.1841    0.9159   10.9535 H       1  UNL1        0.0000
   1299 H          27.3566    6.5580    2.1718 H       1  UNL1        0.0000
   1300 H          20.1045   -6.5526   11.0834 H       1  UNL1        0.0000
   1301 H          13.6948    7.9868    2.1606 H       1  UNL1        0.0000
   1302 H          18.2478    6.9399   -0.0345 H       1  UNL1        0.0000
   1303 H          22.0989    4.3110    0.2712 H       1  UNL1        0.0000
   1304 H          19.6388   -3.1852    5.9583 H       1  UNL1        0.0000
   1305 H          17.0284    8.7355    7.3619 H       1  UNL1        0.0000
   1306 H          10.0206    3.3252    9.0886 H       1  UNL1        0.0000
   1307 H          26.7292    2.4694    4.2772 H       1  UNL1        0.0000
   1308 H          12.3217    1.8778    5.7547 H       1  UNL1        0.0000
   1309 H          14.6532   10.4046    4.1918 H       1  UNL1        0.0000
   1310 H          18.1455   11.6796    2.6940 H       1  UNL1        0.0000
   1311 H          24.6254   -1.3712    3.4943 H      54  UNL54       0.0000
   1312 H          20.8445    6.5786    2.4043 H       1  UNL1        0.0000
   1313 H          16.1600   -0.4153   10.8096 H       1  UNL1        0.0000
   1314 H          23.3636   -0.5832    9.8590 H       1  UNL1        0.0000
   1315 H          21.8825   -1.0523   10.6064 H       1  UNL1        0.0000
   1316 H          23.9378    3.8504    8.7601 H       1  UNL1        0.0000
   1317 H          23.3680    4.2090    7.1416 H       1  UNL1        0.0000
   1318 H          22.8748   -5.5380    9.6690 H       1  UNL1        0.0000
   1319 H          21.5957   -4.4374   10.1264 H       1  UNL1        0.0000
   1320 C          24.5525    3.8125    4.8347 C.3     1  UNL1        0.0000
   1321 C          12.1835    1.9339    8.4889 C.3     1  UNL1        0.0000
   1322 C          19.8212   -3.2744    8.5913 C.3     1  UNL1        0.0000
   1323 C          16.8158    8.8689    4.7023 C.3     1  UNL1        0.0000
   1324 C          25.4485    3.2082    5.8299 C.ar    1  UNL1        0.0000
   1325 C          11.2515    2.5589    7.5119 C.ar    1  UNL1        0.0000
   1326 C          20.7614   -3.8888    7.6441 C.2     1  UNL1        0.0000
   1327 C          15.9259    9.5157    5.7021 C.ar    1  UNL1        0.0000
   1328 C          25.1998    3.2831    7.2363 C.ar    1  UNL1        0.0000
   1329 C          11.4679    2.4389    6.1239 C.ar    1  UNL1        0.0000
   1330 C          21.8908   -4.6491    8.0971 C.2     1  UNL1        0.0000
   1331 C          14.8312   10.2887    5.2572 C.ar    1  UNL1        0.0000
   1332 C          16.1804    9.3450    7.0570 C.ar    1  UNL1        0.0000
   1333 C          20.5137   -3.7566    6.2602 C.3     1  UNL1        0.0000
   1334 C          26.5822    2.5092    5.3542 C.ar    1  UNL1        0.0000
   1335 C          10.1514    3.2513    8.0106 C.ar    1  UNL1        0.0000
   1336 C          24.7643    0.7267    0.1477 C.2     1  UNL1        0.0000
   1337 C          18.2946   12.5183    0.1728 C.2     1  UNL1        0.0000
   1338 C          27.2487    6.4898    0.0217 C.2     1  UNL1        0.0000
   1339 C          13.8904    8.0323    0.0024 C.2     1  UNL1        0.0000
   1340 C          19.4986    4.5553    5.7075 C.3     1  UNL1        0.0000
   1341 C          14.7425   -2.5391    7.6257 C.2     1  UNL1        0.0000
   1342 C          24.6284    2.1816    0.1245 C.2     1  UNL1        0.0000
   1343 C          18.2018   11.0848    0.1353 C.2     1  UNL1        0.0000
   1344 C          25.9509    5.8730    0.0686 C.2     1  UNL1        0.0000
   1345 C          15.2927    8.4466    0.0268 C.2     1  UNL1        0.0000
   1346 C          24.8036    0.0576    1.3774 C.3     1  UNL1        0.0000
   1347 C          13.6568    6.1580   12.0304 C.ar    1  UNL1        0.0000
   1348 C          27.9040    6.7646    1.2557 C.2     1  UNL1        0.0000
   1349 C           8.6226    0.7365   11.8689 C.ar    1  UNL1        0.0000
   1350 C          23.3084   -0.3079   11.8834 C.ar    1  UNL1        0.0000
   1351 C          13.1932    7.8019    1.2148 C.2     1  UNL1        0.0000
   1352 C          20.1461   -7.0797   12.0325 C.3     1  UNL1        0.0000
   1353 C          18.3083   13.2695    1.4020 C.2     1  UNL1        0.0000
   1354 N          18.3634   12.6707    2.6402 N.pl3   1  UNL1        0.0000
   1355 N          22.7293   -0.4907   10.6444 N.pl3   1  UNL1        0.0000
   1356 N          24.1189    3.9293    7.7676 N.pl3   1  UNL1        0.0000
   1357 N          22.2218   -4.8073    9.4145 N.pl3   1  UNL1        0.0000
   1358 O          23.3762    4.2176    5.2005 O.3     1  UNL1        0.0000
   1359 O          12.9524    0.9830    8.0907 O.3     1  UNL1        0.0000
   1360 O          20.2026   -3.1499    9.8124 O.3     1  UNL1        0.0000
   1361 O          16.7499    9.2986    3.5027 O.3     1  UNL1        0.0000
   1362 O          17.5862    7.9117    5.0888 O.3     1  UNL1        0.0000
   1363 O          18.6508   -2.9060    8.1857 O.3     1  UNL1        0.0000
   1364 O          24.9644    3.8932    3.6229 O.3     1  UNL1        0.0000
   1365 O          12.1414    2.3701    9.6886 O.3     1  UNL1        0.0000
   1366 O          22.2919    3.6384    2.6239 O.3     1  UNL1        0.0000
   1367 O          14.6457    1.4970   10.1890 O.3     1  UNL1        0.0000
   1368 O          23.2307    5.9256    3.0739 O.3     1  UNL1        0.0000
   1369 O          12.8935   -0.2277   10.6817 O.3     1  UNL1        0.0000
   1370 O          17.5000   -3.4357   10.7764 O.3     1  UNL1        0.0000
   1371 O          19.2684    8.4597    3.0045 O.3     1  UNL1        0.0000
   1372 O          18.4539   -1.1742   10.3122 O.3     1  UNL1        0.0000
   1373 O          17.5622    6.7026    2.4870 O.3     1  UNL1        0.0000
   1374 O          19.8712   -4.2899   12.0785 O.2     1  UNL1        0.0000
   1375 O          18.1187   10.3834    1.2305 O.2     1  UNL1        0.0000
   1376 O          20.6734   -1.5017   12.0733 O.3     1  UNL1        0.0000
   1377 O          15.8828    8.5476    1.1704 O.2     1  UNL1        0.0000
   1378 O          25.4115    5.5728    1.2166 O.2     1  UNL1        0.0000
   1379 O          11.2572    1.6124   12.0044 O.3     1  UNL1        0.0000
   1380 O          24.6160    2.8185    1.2460 O.2     1  UNL1        0.0000
   1381 O          13.5254    3.3948   12.0857 O.3     1  UNL1        0.0000
   1382 O          20.4837    6.0298    3.1250 O.3     1  UNL1        0.0000
   1383 O          15.7817   -0.9740   10.1060 O.3     1  UNL1        0.0000
   1384 O          22.9378    4.8047    0.1922 O.3     1  UNL1        0.0000
   1385 O          18.3701    7.9067    0.0255 O.3     1  UNL1        0.0000
   1386 H          19.8058    1.0505    8.7732 H       1  UNL1        0.0000
   1387 H          15.8816   -4.6506    6.3798 H       1  UNL1        0.0000
   1388 H          20.6019   10.0668    5.0998 H       1  UNL1        0.0000
   1389 H          20.7534    2.5404    6.9871 H       1  UNL1        0.0000
   1390 H          16.0573    3.1543    8.5383 H       1  UNL1        0.0000
   1391 H          12.2155   -2.4233    6.7008 H       1  UNL1        0.0000
   1392 H          17.4678    1.3659    9.5200 H       1  UNL1        0.0000
   1393 H          17.0106    4.6519    6.7553 H       1  UNL1        0.0000
   1394 H          21.9236    8.2158    4.0982 H       1  UNL1        0.0000
   1395 H           8.2865    8.4263    4.6464 H       1  UNL1        0.0000
   1396 C          18.9375    3.6838    6.7706 C.ar    1  UNL1        0.0000
   1397 C          17.8811    2.0249    8.7578 C.ar    1  UNL1        0.0000
   1398 C          22.3906    8.8912    4.8141 C.ar    1  UNL1        0.0000
   1399 C          14.1121   -3.4448    6.6284 C.2     1  UNL1        0.0000
   1400 C          17.6112    3.8647    7.2067 C.ar    1  UNL1        0.0000
   1401 C          19.2032    1.8426    8.3313 C.ar    1  UNL1        0.0000
   1402 C          21.6500    9.9425    5.3718 C.ar    1  UNL1        0.0000
   1403 C          14.8468   -4.5088    6.0739 C.3     1  UNL1        0.0000
   1404 C          23.7285    8.6938    5.1778 C.ar    1  UNL1        0.0000
   1405 C          12.7694   -3.2465    6.2539 C.3     1  UNL1        0.0000
   1406 C          19.7320    2.6695    7.3391 C.ar    1  UNL1        0.0000
   1407 C          17.0856    3.0344    8.1996 C.ar    1  UNL1        0.0000
   1408 O          20.7187    4.3772    5.3533 O.3     1  UNL1        0.0000
   1409 O          14.0754   -1.5140    8.0128 O.2     1  UNL1        0.0000
   1410 O          15.9141   -2.8198    8.0576 O.2     1  UNL1        0.0000
   1411 O          18.7473    5.4567    5.1895 O.3     1  UNL1        0.0000
   1412 N          21.8736   12.1257   27.8653 N.pl3  30  UNL30       0.0000
   1413 N          21.7538   10.3674   26.5827 N.pl3  30  UNL30       0.0000
   1414 C          22.2405   12.5259   26.5899 C.2    30  UNL30       0.0000
   1415 C          22.1698   11.4209   25.7863 C.2    30  UNL30       0.0000
   1416 C          22.9578    8.2193   26.2121 C.3    30  UNL30       0.0000
   1417 C          21.8325   12.9950   29.0461 C.3    30  UNL30       0.0000
   1418 C          21.5740   10.8138   27.8391 C.3    30  UNL30       0.0000
   1419 C          21.6254    8.9612   26.1502 C.3    30  UNL30       0.0000
   1420 H          22.5031   13.5515   26.3692 H      30  UNL30       0.0000
   1421 H          22.3644   11.2906   24.7291 H      30  UNL30       0.0000
   1422 H          23.7077    8.6759   25.5537 H      30  UNL30       0.0000
   1423 H          22.8272   13.4252   29.2086 H      30  UNL30       0.0000
   1424 H          23.3568    8.1906   27.2349 H      30  UNL30       0.0000
   1425 H          21.0916   13.7857   28.8841 H      30  UNL30       0.0000
   1426 H          22.8192    7.1794   25.8846 H      30  UNL30       0.0000
   1427 H          21.2033    8.9857   25.1364 H      30  UNL30       0.0000
   1428 H          21.5477   12.3964   29.9161 H      30  UNL30       0.0000
   1429 H          21.2169   10.2169   28.6712 H      30  UNL30       0.0000
   1430 H          20.8656    8.5062   26.7950 H      30  UNL30       0.0000
   1431 TI          8.5094   -5.3939   24.4306 Ti      1  UNL1        0.0000
   1432 TI         19.3398   -2.5127   15.0658 Ti      1  UNL1        0.0000
   1433 TI         12.6060   -9.3301   22.6106 Ti      1  UNL1        0.0000
   1434 TI         14.1172   -0.1680   16.8376 Ti      1  UNL1        0.0000
   1435 TI         13.1187    1.5103   14.9332 Ti      1  UNL1        0.0000
   1436 TI         14.4942   -9.5845   24.5640 Ti      1  UNL1        0.0000
   1437 TI          9.4585   -7.1298   22.5391 Ti      1  UNL1        0.0000
   1438 TI         17.3520   -2.2102   16.9132 Ti      1  UNL1        0.0000
   1439 H           9.0112   -1.4969   24.2111 H       1  UNL1        0.0000
   1440 H          20.1486   -6.4188   15.3865 H       1  UNL1        0.0000
   1441 H           4.5495   -6.1506   24.0481 H       1  UNL1        0.0000
   1442 H          22.7220   -0.5084   15.2664 H       1  UNL1        0.0000
   1443 H          15.4698  -13.6190   24.1780 H       1  UNL1        0.0000
   1444 H           9.0601    0.9204   15.2552 H       1  UNL1        0.0000
   1445 H          13.6131   -0.1265   13.0601 H       1  UNL1        0.0000
   1446 H          17.4643   -2.7554   13.3658 H       1  UNL1        0.0000
   1447 H          15.0041  -10.2516   19.0529 H       1  UNL1        0.0000
   1448 H          12.3938    1.6690   20.4565 H       1  UNL1        0.0000
   1449 H           5.3859   -3.7412   22.1832 H       1  UNL1        0.0000
   1450 H          22.0946   -4.5971   17.3718 H       1  UNL1        0.0000
   1451 H           7.6870   -5.1886   18.8494 H       1  UNL1        0.0000
   1452 H          10.0186    3.3382   17.2864 H       1  UNL1        0.0000
   1453 H          13.5109    4.6131   15.7886 H       1  UNL1        0.0000
   1454 H          19.9908   -8.4376   16.5889 H      54  UNL54       0.0000
   1455 H          16.2099   -0.4879   15.4989 H       1  UNL1        0.0000
   1456 H          11.5253   -7.4817   23.9042 H       1  UNL1        0.0000
   1457 H          18.7290   -7.6496   22.9536 H       1  UNL1        0.0000
   1458 H          17.2479   -8.1187   23.7010 H       1  UNL1        0.0000
   1459 H          19.3031   -3.2160   21.8547 H       1  UNL1        0.0000
   1460 H          18.7334   -2.8574   20.2362 H       1  UNL1        0.0000
   1461 H          18.2402  -12.6045   22.7636 H       1  UNL1        0.0000
   1462 H          16.9610  -11.5039   23.2210 H       1  UNL1        0.0000
   1463 C          19.9179   -3.2540   17.9293 C.3     1  UNL1        0.0000
   1464 C           7.5488   -5.1326   21.5835 C.3     1  UNL1        0.0000
   1465 C          15.1865  -10.3408   21.6859 C.3     1  UNL1        0.0000
   1466 C          12.1811    1.8025   17.7969 C.3     1  UNL1        0.0000
   1467 C          20.8139   -3.8583   18.9245 C.ar    1  UNL1        0.0000
   1468 C           6.6169   -4.5075   20.6065 C.ar    1  UNL1        0.0000
   1469 C          16.1267  -10.9552   20.7387 C.2     1  UNL1        0.0000
   1470 C          11.2913    2.4493   18.7967 C.ar    1  UNL1        0.0000
   1471 C          20.5651   -3.7834   20.3309 C.ar    1  UNL1        0.0000
   1472 C           6.8333   -4.6275   19.2185 C.ar    1  UNL1        0.0000
   1473 C          17.2562  -11.7155   21.1917 C.2     1  UNL1        0.0000
   1474 C          10.1966    3.2223   18.3518 C.ar    1  UNL1        0.0000
   1475 C          11.5458    2.2785   20.1516 C.ar    1  UNL1        0.0000
   1476 C          15.8790  -10.8231   19.3548 C.3     1  UNL1        0.0000
   1477 C          21.9476   -4.5573   18.4488 C.ar    1  UNL1        0.0000
   1478 C           5.5167   -3.8151   21.1052 C.ar    1  UNL1        0.0000
   1479 C          20.1296   -6.3397   13.2424 C.2     1  UNL1        0.0000
   1480 C          13.6599    5.4519   13.2674 C.ar    1  UNL1        0.0000
   1481 C          22.6141   -0.5766   13.1164 C.ar    1  UNL1        0.0000
   1482 C           9.2557    0.9658   13.0970 C.ar    1  UNL1        0.0000
   1483 C          14.8639   -2.5112   18.8022 C.3     1  UNL1        0.0000
   1484 C          10.1079   -9.6056   20.7203 C.2     1  UNL1        0.0000
   1485 C          19.9938   -4.8849   13.2192 C.2     1  UNL1        0.0000
   1486 C          13.5672    4.0184   13.2299 C.3     1  UNL1        0.0000
   1487 C          21.3162   -1.1934   13.1632 C.3     1  UNL1        0.0000
   1488 C          10.6580    1.3802   13.1214 C.3     1  UNL1        0.0000
   1489 C          20.1690   -7.0088   14.4720 C.3     1  UNL1        0.0000
   1490 C           9.0222   -0.9085   25.1250 C.ar    1  UNL1        0.0000
   1491 C          23.2694   -0.3018   14.3503 C.ar    1  UNL1        0.0000
   1492 C           3.9880   -6.3299   24.9635 C.ar    1  UNL1        0.0000
   1493 C          18.6737   -7.3743   24.9780 C.ar    1  UNL1        0.0000
   1494 C           8.5585    0.7354   14.3094 C.ar    1  UNL1        0.0000
   1495 C          15.5115  -14.1462   25.1271 C.3     1  UNL1        0.0000
   1496 C          13.6737    6.2031   14.4966 C.ar    1  UNL1        0.0000
   1497 N          13.7287    5.6042   15.7348 N.pl3   1  UNL1        0.0000
   1498 N          18.0947   -7.5571   23.7390 N.pl3   1  UNL1        0.0000
   1499 N          19.4842   -3.1371   20.8622 N.pl3   1  UNL1        0.0000
   1500 N          17.5872  -11.8737   22.5091 N.pl3   1  UNL1        0.0000
   1501 O          18.7415   -2.8489   18.2951 O.3     1  UNL1        0.0000
   1502 O           8.3178   -6.0834   21.1853 O.3     1  UNL1        0.0000
   1503 O          15.5680  -10.2164   22.9070 O.3     1  UNL1        0.0000
   1504 O          12.1152    2.2322   16.5973 O.3     1  UNL1        0.0000
   1505 O          12.9516    0.8453   18.1834 O.3     1  UNL1        0.0000
   1506 O          14.0161   -9.9724   21.2804 O.3     1  UNL1        0.0000
   1507 O          20.3297   -3.1732   16.7175 O.3     1  UNL1        0.0000
   1508 O           7.5068   -4.6963   22.7833 O.3     1  UNL1        0.0000
   1509 O          17.6572   -3.4281   15.7185 O.3     1  UNL1        0.0000
   1510 O          10.0110   -5.5695   23.2836 O.3     1  UNL1        0.0000
   1511 O          18.5960   -1.1408   16.1685 O.3     1  UNL1        0.0000
   1512 O           8.2588   -7.2942   23.7763 O.3     1  UNL1        0.0000
   1513 O          12.8653  -10.5021   23.8710 O.3     1  UNL1        0.0000
   1514 O          14.6338    1.3933   16.0991 O.3     1  UNL1        0.0000
   1515 O          13.8193   -8.2406   23.4068 O.3     1  UNL1        0.0000
   1516 O          12.9275   -0.3638   15.5817 O.3     1  UNL1        0.0000
   1517 O          15.2366  -11.3563   25.1731 O.2     1  UNL1        0.0000
   1518 O          13.4840    3.3169   14.3251 O.3     1  UNL1        0.0000
   1519 O          16.0387   -8.5682   25.1679 O.3     1  UNL1        0.0000
   1520 O          11.2481    1.4812   14.2650 O.3     1  UNL1        0.0000
   1521 O          20.7769   -1.4936   14.3112 O.3     1  UNL1        0.0000
   1522 O           6.6226   -5.4540   25.0990 O.3     1  UNL1        0.0000
   1523 O          19.9813   -4.2479   14.3406 O.2     1  UNL1        0.0000
   1524 O           8.8908   -3.6716   25.1803 O.3     1  UNL1        0.0000
   1525 O          15.8490   -1.0366   16.2196 O.3     1  UNL1        0.0000
   1526 O          11.1471   -8.0404   23.2006 O.3     1  UNL1        0.0000
   1527 O          18.3031   -2.2617   13.2868 O.3     1  UNL1        0.0000
   1528 O          13.7355    0.8403   13.1201 O.3     1  UNL1        0.0000
   1529 H          15.1712   -6.0159   21.8678 H       1  UNL1        0.0000
   1530 H          11.2470  -11.7170   19.4744 H       1  UNL1        0.0000
   1531 H          15.9672    3.0004   18.1944 H       1  UNL1        0.0000
   1532 H          16.1188   -4.5260   20.0817 H       1  UNL1        0.0000
   1533 H          11.4227   -3.9121   21.6329 H       1  UNL1        0.0000
   1534 H           7.5809   -9.4897   19.7954 H       1  UNL1        0.0000
   1535 H          12.8332   -5.7006   22.6146 H       1  UNL1        0.0000
   1536 H          12.3760   -2.4145   19.8499 H       1  UNL1        0.0000
   1537 H          17.2889    1.1494   17.1928 H       1  UNL1        0.0000
   1538 H           3.6518    1.3599   17.7410 H       1  UNL1        0.0000
   1539 C          14.3028   -3.3826   19.8652 C.ar    1  UNL1        0.0000
   1540 C          13.2465   -5.0415   21.8524 C.ar    1  UNL1        0.0000
   1541 C          17.7560    1.8248   17.9087 C.ar    1  UNL1        0.0000
   1542 C           9.4774  -10.5112   19.7230 C.2     1  UNL1        0.0000
   1543 C          12.9765   -3.2017   20.3013 C.ar    1  UNL1        0.0000
   1544 C          14.5685   -5.2238   21.4259 C.ar    1  UNL1        0.0000
   1545 C          17.0154    2.8760   18.4664 C.ar    1  UNL1        0.0000
   1546 C          10.2122  -11.5753   19.1685 C.3     1  UNL1        0.0000
   1547 C          19.0939    1.6274   18.2724 C.ar    1  UNL1        0.0000
   1548 C           8.1347  -10.3129   19.3485 C.3     1  UNL1        0.0000
   1549 C          15.0973   -4.3970   20.4338 C.ar    1  UNL1        0.0000
   1550 C          12.4510   -4.0320   21.2942 C.ar    1  UNL1        0.0000
   1551 O          16.0841   -2.6893   18.4479 O.3     1  UNL1        0.0000
   1552 O           9.4408   -8.5805   21.1075 O.2     1  UNL1        0.0000
   1553 O          11.2795   -9.8862   21.1522 O.2     1  UNL1        0.0000
   1554 O          14.1126   -1.6097   18.2841 O.3     1  UNL1        0.0000
   1555 N          17.2389    5.0592   40.9599 N.pl3  32  UNL32       0.0000
   1556 N          17.1192    3.3010   39.6773 N.pl3  32  UNL32       0.0000
   1557 C          17.6058    5.4594   39.6845 C.2    32  UNL32       0.0000
   1558 C          17.5352    4.3544   38.8809 C.2    32  UNL32       0.0000
   1559 C          18.3232    1.1528   39.3067 C.3    32  UNL32       0.0000
   1560 C          17.1979    5.9286   42.1407 C.3    32  UNL32       0.0000
   1561 C          16.9393    3.7474   40.9337 C.3    32  UNL32       0.0000
   1562 C          16.9908    1.8948   39.2448 C.3    32  UNL32       0.0000
   1563 H          17.8685    6.4851   39.4638 H      32  UNL32       0.0000
   1564 H          17.7297    4.2241   37.8238 H      32  UNL32       0.0000
   1565 H          19.0730    1.6094   38.6484 H      32  UNL32       0.0000
   1566 H          18.1926    6.3587   42.3032 H      32  UNL32       0.0000
   1567 H          18.7221    1.1241   40.3295 H      32  UNL32       0.0000
   1568 H          16.4569    6.7193   41.9787 H      32  UNL32       0.0000
   1569 H          18.1846    0.1130   38.9793 H      32  UNL32       0.0000
   1570 H          16.5687    1.9193   38.2310 H      32  UNL32       0.0000
   1571 H          16.9130    5.3300   43.0107 H      32  UNL32       0.0000
   1572 H          16.5822    3.1505   41.7659 H      32  UNL32       0.0000
   1573 H          16.2309    1.4398   39.8896 H      32  UNL32       0.0000
   1574 TI          3.8747  -12.4604   37.5252 Ti      1  UNL1        0.0000
   1575 TI         14.7052   -9.5792   28.1604 Ti      1  UNL1        0.0000
   1576 TI          7.9714  -16.3966   35.7052 Ti      1  UNL1        0.0000
   1577 TI          9.4826   -7.2344   29.9322 Ti      1  UNL1        0.0000
   1578 TI          8.4840   -5.5561   28.0278 Ti      1  UNL1        0.0000
   1579 TI          9.8596  -16.6509   37.6586 Ti      1  UNL1        0.0000
   1580 TI          4.8239  -14.1963   35.6337 Ti      1  UNL1        0.0000
   1581 TI         12.7174   -9.2766   30.0078 Ti      1  UNL1        0.0000
   1582 H           4.3766   -8.5633   37.3057 H      14  UNL14       0.0000
   1583 H          15.5140  -13.4852   28.4811 H       1  UNL1        0.0000
   1584 H          -0.0852  -13.2170   37.1427 H       3  UNL3        0.0000
   1585 H          18.0873   -7.5749   28.3610 H       1  UNL1        0.0000
   1586 H          10.8352  -20.6855   37.2726 H      16  UNL16       0.0000
   1587 H           4.4255   -6.1460   28.3498 H       1  UNL1        0.0000
   1588 H           8.9785   -7.1929   26.1547 H       1  UNL1        0.0000
   1589 H          12.8297   -9.8219   26.4604 H       1  UNL1        0.0000
   1590 H          10.3695  -17.3180   32.1475 H       1  UNL1        0.0000
   1591 H           7.7591   -5.3974   33.5511 H       1  UNL1        0.0000
   1592 H           0.7513  -10.8076   35.2778 H       1  UNL1        0.0000
   1593 H          17.4599  -11.6635   30.4664 H       1  UNL1        0.0000
   1594 H           3.0524  -12.2551   31.9440 H       1  UNL1        0.0000
   1595 H           5.3839   -3.7283   30.3810 H       1  UNL1        0.0000
   1596 H           8.8763   -2.4533   28.8833 H       1  UNL1        0.0000
   1597 H          15.3561  -15.5041   29.6835 H      54  UNL54       0.0000
   1598 H          11.5752   -7.5543   28.5935 H       1  UNL1        0.0000
   1599 H           6.8907  -14.5482   36.9988 H       1  UNL1        0.0000
   1600 H          14.0943  -14.7161   36.0482 H      15  UNL15       0.0000
   1601 H          12.6132  -15.1851   36.7956 H      15  UNL15       0.0000
   1602 H          14.6685  -10.2824   34.9493 H       1  UNL1        0.0000
   1603 H          14.0987   -9.9238   33.3308 H       1  UNL1        0.0000
   1604 H          13.6055  -19.6709   35.8582 H       1  UNL1        0.0000
   1605 H          12.3264  -18.5703   36.3156 H       1  UNL1        0.0000
   1606 C          15.2832  -10.3204   31.0239 C.3     1  UNL1        0.0000
   1607 C           2.9142  -12.1990   34.6782 C.3     1  UNL1        0.0000
   1608 C          10.5519  -17.4073   34.7805 C.3     1  UNL1        0.0000
   1609 C           7.5465   -5.2639   30.8915 C.3     1  UNL1        0.0000
   1610 C          16.1792  -10.9247   32.0191 C.ar    1  UNL1        0.0000
   1611 C           1.9823  -11.5740   33.7011 C.ar    1  UNL1        0.0000
   1612 C          11.4921  -18.0216   33.8333 C.2     1  UNL1        0.0000
   1613 C           6.6566   -4.6171   31.8913 C.ar    1  UNL1        0.0000
   1614 C          15.9305  -10.8498   33.4255 C.ar    1  UNL1        0.0000
   1615 C           2.1986  -11.6940   32.3131 C.ar    1  UNL1        0.0000
   1616 C          12.6215  -18.7819   34.2864 C.2     1  UNL1        0.0000
   1617 C           5.5619   -3.8442   31.4464 C.ar    1  UNL1        0.0000
   1618 C           6.9111   -4.7879   33.2462 C.ar    1  UNL1        0.0000
   1619 C          11.2444  -17.8895   32.4494 C.3     1  UNL1        0.0000
   1620 C          17.3129  -11.6237   31.5434 C.ar    1  UNL1        0.0000
   1621 C           0.8821  -10.8816   34.1998 C.ar    1  UNL1        0.0000
   1622 C          15.4950  -13.4061   26.3370 C.2     1  UNL1        0.0000
   1623 C           9.0253   -1.6146   26.3620 C.ar    1  UNL1        0.0000
   1624 C          17.9794   -7.6430   26.2110 C.ar    1  UNL1        0.0000
   1625 C           4.6211   -6.1006   26.1916 C.ar    1  UNL1        0.0000
   1626 C          10.2293   -9.5776   31.8968 C.3     1  UNL1        0.0000
   1627 C           5.4732  -16.6720   33.8149 C.2     1  UNL1        0.0000
   1628 C          15.3591  -11.9513   26.3138 C.2     1  UNL1        0.0000
   1629 C           8.9325   -3.0481   26.3245 C.3     1  UNL1        0.0000
   1630 C          16.6816   -8.2599   26.2578 C.3     1  UNL1        0.0000
   1631 C           6.0234   -5.6863   26.2160 C.3     1  UNL1        0.0000
   1632 C          15.5343  -14.0753   27.5666 C.3     1  UNL1        0.0000
   1633 C           4.3875   -7.9749   38.2196 C.2    14  UNL14       0.0000
   1634 C          18.6347   -7.3682   27.4449 C.ar    1  UNL1        0.0000
   1635 C          -0.6467  -13.3964   38.0581 C.2     3  UNL3        0.0000
   1636 C          14.0391  -14.4407   38.0726 C.2    15  UNL15       0.0000
   1637 C           3.9239   -6.3310   27.4040 C.ar    1  UNL1        0.0000
   1638 C          10.8768  -21.2126   38.2217 C.3    34  UNL34       0.0000
   1639 C           9.0390   -0.8634   27.5913 C.ar    1  UNL1        0.0000
   1640 N           9.0941   -1.4622   28.8294 N.pl3   1  UNL1        0.0000
   1641 N          13.4600  -14.6236   36.8336 N.pl3  15  UNL15       0.0000
   1642 N          14.8496  -10.2036   33.9568 N.pl3   1  UNL1        0.0000
   1643 N          12.9526  -18.9402   35.6038 N.pl3   1  UNL1        0.0000
   1644 O          14.1069   -9.9153   31.3897 O.3     1  UNL1        0.0000
   1645 O           3.6832  -13.1499   34.2799 O.3     1  UNL1        0.0000
   1646 O          10.9334  -17.2828   36.0016 O.3     1  UNL1        0.0000
   1647 O           7.4806   -4.8343   29.6919 O.3     1  UNL1        0.0000
   1648 O           8.3169   -6.2211   31.2780 O.3     1  UNL1        0.0000
   1649 O           9.3815  -17.0388   34.3750 O.3     1  UNL1        0.0000
   1650 O          15.6951  -10.2396   29.8122 O.3     1  UNL1        0.0000
   1651 O           2.8721  -11.7627   35.8779 O.3     1  UNL1        0.0000
   1652 O          13.0226  -10.4945   28.8131 O.3     1  UNL1        0.0000
   1653 O           5.3764  -12.6359   36.3782 O.3     1  UNL1        0.0000
   1654 O          13.9614   -8.2072   29.2631 O.3     1  UNL1        0.0000
   1655 O           3.6242  -14.3606   36.8709 O.3     1  UNL1        0.0000
   1656 O           8.2307  -17.5685   36.9656 O.3     1  UNL1        0.0000
   1657 O           9.9991   -5.6731   29.1937 O.3     1  UNL1        0.0000
   1658 O           9.1846  -15.3070   36.5014 O.3     1  UNL1        0.0000
   1659 O           8.2929   -7.4302   28.6763 O.3     1  UNL1        0.0000
   1660 O          10.6019  -18.4228   38.2677 O.3     1  UNL1        0.0000
   1661 O           8.8494   -3.7495   27.4197 O.3     1  UNL1        0.0000
   1662 O          11.4041  -15.6346   38.2626 O.3     1  UNL1        0.0000
   1663 O           6.6135   -5.5852   27.3596 O.3     1  UNL1        0.0000
   1664 O          16.1423   -8.5600   27.4058 O.3     1  UNL1        0.0000
   1665 O           1.9879  -12.5204   38.1936 O.3     1  UNL1        0.0000
   1666 O          15.3467  -11.3144   27.4352 O.2     1  UNL1        0.0000
   1667 O           4.2561  -10.7381   38.2749 O.3     1  UNL1        0.0000
   1668 O          11.2144   -8.1031   29.3142 O.3     1  UNL1        0.0000
   1669 O           6.5124  -15.1069   36.2952 O.3     1  UNL1        0.0000
   1670 O          13.6685   -9.3282   26.3814 O.3     1  UNL1        0.0000
   1671 O           9.1008   -6.2261   26.2147 O.3     1  UNL1        0.0000
   1672 H          10.5366  -13.0824   34.9624 H       1  UNL1        0.0000
   1673 H           6.6123  -18.7835   32.5690 H       1  UNL1        0.0000
   1674 H          11.3326   -4.0661   31.2890 H       1  UNL1        0.0000
   1675 H          11.4841  -11.5925   33.1763 H       1  UNL1        0.0000
   1676 H           6.7880  -10.9785   34.7275 H       1  UNL1        0.0000
   1677 H           2.9462  -16.5561   32.8900 H       1  UNL1        0.0000
   1678 H           8.1985  -12.7670   35.7092 H       1  UNL1        0.0000
   1679 H           7.7413   -9.4810   32.9445 H       1  UNL1        0.0000
   1680 H          12.6543   -5.9171   30.2874 H       1  UNL1        0.0000
   1681 H          -0.9828   -5.7065   30.8356 H       1  UNL1        0.0000
   1682 C           9.6682  -10.4490   32.9598 C.ar    1  UNL1        0.0000
   1683 C           8.6118  -12.1079   34.9470 C.ar    1  UNL1        0.0000
   1684 C          13.1214   -5.2417   31.0033 C.ar    1  UNL1        0.0000
   1685 C           4.8428  -17.5777   32.8176 C.2     1  UNL1        0.0000
   1686 C           8.3419  -10.2682   33.3959 C.ar    1  UNL1        0.0000
   1687 C           9.9339  -12.2903   34.5205 C.ar    1  UNL1        0.0000
   1688 C          12.3807   -4.1904   31.5610 C.ar    1  UNL1        0.0000
   1689 C           5.5775  -18.6417   32.2631 C.3     1  UNL1        0.0000
   1690 C          14.4592   -5.4391   31.3670 C.ar    1  UNL1        0.0000
   1691 C           3.5001  -17.3793   32.4431 C.3     1  UNL1        0.0000
   1692 C          10.4627  -11.4634   33.5284 C.ar    1  UNL1        0.0000
   1693 C           7.8164  -11.0984   34.3888 C.ar    1  UNL1        0.0000
   1694 O          11.4494   -9.7557   31.5425 O.3     1  UNL1        0.0000
   1695 O           4.8061  -15.6469   34.2021 O.2     1  UNL1        0.0000
   1696 O           6.6448  -16.9526   34.2468 O.2     1  UNL1        0.0000
   1697 O           9.4780   -8.6761   31.3788 O.3     1  UNL1        0.0000
   1698 N          12.6043   -2.0072   54.0545 N.pl3  35  UNL35       0.0000
   1699 N          12.4846   -3.7655   52.7719 N.pl3  35  UNL35       0.0000
   1700 C          12.9712   -1.6070   52.7791 C.2    35  UNL35       0.0000
   1701 C          12.9005   -2.7120   51.9755 C.2    35  UNL35       0.0000
   1702 C          13.6885   -5.9136   52.4013 C.3    35  UNL35       0.0000
   1703 C          12.5632   -1.1378   55.2353 C.3    35  UNL35       0.0000
   1704 C          12.3047   -3.3191   54.0284 C.3    35  UNL35       0.0000
   1705 C          12.3561   -5.1716   52.3394 C.3    35  UNL35       0.0000
   1706 H          13.2338   -0.5814   52.5584 H      35  UNL35       0.0000
   1707 H          13.0951   -2.8423   50.9184 H      35  UNL35       0.0000
   1708 H          14.4384   -5.4570   51.7430 H      35  UNL35       0.0000
   1709 H          13.5579   -0.7077   55.3978 H      35  UNL35       0.0000
   1710 H          14.0875   -5.9423   53.4241 H      35  UNL35       0.0000
   1711 H          11.8223   -0.3472   55.0733 H      35  UNL35       0.0000
   1712 H          13.5499   -6.9535   52.0739 H      35  UNL35       0.0000
   1713 H          11.9340   -5.1471   51.3257 H      35  UNL35       0.0000
   1714 H          12.2784   -1.7365   56.1053 H      35  UNL35       0.0000
   1715 H          11.9476   -3.9160   54.8605 H      35  UNL35       0.0000
   1716 H          11.5963   -5.6266   52.9842 H      35  UNL35       0.0000
   1717 TI          6.6270   16.2850   11.2794 Ti      1  UNL1        0.0000
   1718 TI         17.4574   19.1662    1.9146 Ti      1  UNL1        0.0000
   1719 TI         10.7237   12.3488    9.4595 Ti      1  UNL1        0.0000
   1720 TI         12.2348   21.5109    3.6864 Ti      1  UNL1        0.0000
   1721 TI         11.2363   23.1893    1.7820 Ti      1  UNL1        0.0000
   1722 TI         12.6119   12.0945   11.4128 Ti      1  UNL1        0.0000
   1723 TI          7.5762   14.5491    9.3880 Ti      1  UNL1        0.0000
   1724 TI         15.4696   19.4688    3.7621 Ti      1  UNL1        0.0000
   1725 H           7.1288   20.1821   11.0600 H       1  UNL1        0.0000
   1726 H          18.2662   15.2602    2.2353 H       1  UNL1        0.0000
   1727 H           2.6671   15.5284   10.8970 H       1  UNL1        0.0000
   1728 H          20.8396   21.1705    2.1153 H       1  UNL1        0.0000
   1729 H          13.5875    8.0599   11.0269 H       1  UNL1        0.0000
   1730 H           7.1778   22.5994    2.1041 H       1  UNL1        0.0000
   1731 H          11.7307   21.5524   -0.0910 H       1  UNL1        0.0000
   1732 H          15.5819   18.9235    0.2147 H       1  UNL1        0.0000
   1733 H          13.1218   11.4274    5.9017 H       1  UNL1        0.0000
   1734 H          10.5114   23.3480    7.3054 H       1  UNL1        0.0000
   1735 H           3.5036   17.9377    9.0321 H       1  UNL1        0.0000
   1736 H          20.2122   17.0819    4.2206 H       1  UNL1        0.0000
   1737 H           5.8047   16.4903    5.6982 H       1  UNL1        0.0000
   1738 H           8.1362   25.0171    4.1353 H       1  UNL1        0.0000
   1739 H          11.6285   26.2921    2.6375 H       1  UNL1        0.0000
   1740 H          18.1084   13.2413    3.4378 H       1  UNL1        0.0000
   1741 H          14.3275   21.1911    2.3478 H       1  UNL1        0.0000
   1742 H           9.6430   14.1972   10.7531 H       1  UNL1        0.0000
   1743 H          16.8466   14.0293    9.8025 H       1  UNL1        0.0000
   1744 H          15.3655   13.5603   10.5498 H       1  UNL1        0.0000
   1745 H          17.4207   18.4630    8.7036 H       1  UNL1        0.0000
   1746 H          16.8510   18.8215    7.0851 H       1  UNL1        0.0000
   1747 H          16.3578    9.0745    9.6125 H       1  UNL1        0.0000
   1748 H          15.0786   10.1751   10.0699 H       1  UNL1        0.0000
   1749 C          18.0355   18.4250    4.7782 C.3     1  UNL1        0.0000
   1750 C           5.6664   16.5464    8.4324 C.3     1  UNL1        0.0000
   1751 C          13.3042   11.3381    8.5347 C.3     1  UNL1        0.0000
   1752 C          10.2987   23.4815    4.6458 C.3     1  UNL1        0.0000
   1753 C          18.9315   17.8207    5.7734 C.ar    1  UNL1        0.0000
   1754 C           4.7345   17.1714    7.4554 C.ar    1  UNL1        0.0000
   1755 C          14.2444   10.7238    7.5876 C.ar    1  UNL1        0.0000
   1756 C           9.4089   24.1283    5.6456 C.ar    1  UNL1        0.0000
   1757 C          18.6827   17.8956    7.1798 C.ar    1  UNL1        0.0000
   1758 C           4.9509   17.0514    6.0673 C.ar    1  UNL1        0.0000
   1759 C          15.3738    9.9635    8.0406 C.ar    1  UNL1        0.0000
   1760 C           8.3142   24.9012    5.2007 C.ar    1  UNL1        0.0000
   1761 C           9.6634   23.9575    7.0005 C.ar    1  UNL1        0.0000
   1762 C          13.9967   10.8559    6.2036 C.ar    1  UNL1        0.0000
   1763 C          20.0652   17.1217    5.2977 C.ar    1  UNL1        0.0000
   1764 C           3.6344   17.8638    7.9541 C.ar    1  UNL1        0.0000
   1765 C          18.2473   15.3392    0.0912 C.2     1  UNL1        0.0000
   1766 C          11.7775   27.1308    0.1162 C.2     1  UNL1        0.0000
   1767 C          20.7317   21.1024   -0.0348 C.2     1  UNL1        0.0000
   1768 C           7.3734   22.6448   -0.0542 C.2     1  UNL1        0.0000
   1769 C          12.9816   19.1678    5.6510 C.3     1  UNL1        0.0000
   1770 C           8.2255   12.0734    7.5692 C.3     1  UNL1        0.0000
   1771 C          18.1114   16.7941    0.0680 C.2     1  UNL1        0.0000
   1772 C          11.6848   25.6973    0.0787 C.2     1  UNL1        0.0000
   1773 C          19.4339   20.4855    0.0121 C.2     1  UNL1        0.0000
   1774 C           8.7757   23.0591   -0.0297 C.2     1  UNL1        0.0000
   1775 C          18.2866   14.6701    1.3209 C.2     1  UNL1        0.0000
   1776 C           7.1398   20.7705   11.9739 C.ar    1  UNL1        0.0000
   1777 C          21.3870   21.3772    1.1992 C.2     1  UNL1        0.0000
   1778 C           2.1056   15.3490   11.8124 C.ar    1  UNL1        0.0000
   1779 C          16.7913   14.3046   11.8268 C.ar    1  UNL1        0.0000
   1780 C           6.6762   22.4144    1.1583 C.2     1  UNL1        0.0000
   1781 C          13.6291    7.5328   11.9760 C.ar    1  UNL1        0.0000
   1782 C          11.7913   27.8820    1.3455 C.2     1  UNL1        0.0000
   1783 N          11.8464   27.2832    2.5837 N.pl3   1  UNL1        0.0000
   1784 N          16.2123   14.1218   10.5879 N.pl3   1  UNL1        0.0000
   1785 N          17.6019   18.5418    7.7111 N.pl3   1  UNL1        0.0000
   1786 N          15.7048    9.8052    9.3580 N.pl3   1  UNL1        0.0000
   1787 O          16.8592   18.8301    5.1440 O.3     1  UNL1        0.0000
   1788 O           6.4354   15.5955    8.0341 O.3     1  UNL1        0.0000
   1789 O          13.6856   11.4626    9.7559 O.3     1  UNL1        0.0000
   1790 O          10.2329   23.9111    3.4462 O.3     1  UNL1        0.0000
   1791 O          11.0692   22.5242    5.0323 O.3     1  UNL1        0.0000
   1792 O          12.1337   11.7065    8.1292 O.3     1  UNL1        0.0000
   1793 O          18.4474   18.5057    3.5664 O.3     1  UNL1        0.0000
   1794 O           5.6244   16.9826    9.6321 O.3     1  UNL1        0.0000
   1795 O          15.7749   18.2509    2.5674 O.3     1  UNL1        0.0000
   1796 O           8.1286   16.1095   10.1325 O.3     1  UNL1        0.0000
   1797 O          16.7136   20.5382    3.0174 O.3     1  UNL1        0.0000
   1798 O           6.3765   14.3848   10.6252 O.3     1  UNL1        0.0000
   1799 O          10.9830   11.1768   10.7199 O.3     1  UNL1        0.0000
   1800 O          12.7514   23.0723    2.9480 O.3     1  UNL1        0.0000
   1801 O          11.9369   13.4383   10.2557 O.3     1  UNL1        0.0000
   1802 O          11.0452   21.3151    2.4305 O.3     1  UNL1        0.0000
   1803 O          13.3542   10.3226   12.0219 O.3     1  UNL1        0.0000
   1804 O          11.6017   24.9959    1.1739 O.2     1  UNL1        0.0000
   1805 O          14.1563   13.1108   12.0168 O.3     1  UNL1        0.0000
   1806 O           9.3657   23.1601    1.1139 O.2     1  UNL1        0.0000
   1807 O          18.8945   20.1853    1.1601 O.2     1  UNL1        0.0000
   1808 O           4.7402   16.2250   11.9479 O.3     1  UNL1        0.0000
   1809 O          18.0990   17.4310    1.1895 O.2     1  UNL1        0.0000
   1810 O           7.0084   18.0073   12.0292 O.3     1  UNL1        0.0000
   1811 O          13.9666   20.6423    3.0685 O.3     1  UNL1        0.0000
   1812 O           9.2647   13.6385   10.0495 O.3     1  UNL1        0.0000
   1813 O          16.4207   19.4172    0.1357 O.3     1  UNL1        0.0000
   1814 O          11.8531   22.5192   -0.0311 O.3     1  UNL1        0.0000
   1815 H          13.2888   15.6630    8.7167 H       1  UNL1        0.0000
   1816 H           9.3646    9.9619    6.3233 H       1  UNL1        0.0000
   1817 H          14.0849   24.6793    5.0433 H       1  UNL1        0.0000
   1818 H          14.2364   17.1529    6.9306 H       1  UNL1        0.0000
   1819 H           9.5403   17.7668    8.4818 H       1  UNL1        0.0000
   1820 H           5.6985   12.1893    6.6443 H       1  UNL1        0.0000
   1821 H          10.9508   15.9784    9.4635 H       1  UNL1        0.0000
   1822 H          10.4936   19.2644    6.6988 H       1  UNL1        0.0000
   1823 H          15.4066   22.8283    4.0416 H       1  UNL1        0.0000
   1824 H           1.7694   23.0388    4.5899 H       1  UNL1        0.0000
   1825 C          12.4204   18.2963    6.7140 C.ar    1  UNL1        0.0000
   1826 C          11.3641   16.6374    8.7012 C.ar    1  UNL1        0.0000
   1827 C          15.8736   23.5037    4.7576 C.ar    1  UNL1        0.0000
   1828 C           7.5950   11.1677    6.5719 C.ar    1  UNL1        0.0000
   1829 C          11.0942   18.4772    7.1502 C.ar    1  UNL1        0.0000
   1830 C          12.6862   16.4551    8.2748 C.ar    1  UNL1        0.0000
   1831 C          15.1330   24.5550    5.3153 C.ar    1  UNL1        0.0000
   1832 C           8.3298   10.1037    6.0174 C.ar    1  UNL1        0.0000
   1833 C          17.2115   23.3063    5.1213 C.ar    1  UNL1        0.0000
   1834 C           6.2524   11.3661    6.1974 C.ar    1  UNL1        0.0000
   1835 C          13.2150   17.2820    7.2826 C.ar    1  UNL1        0.0000
   1836 C          10.5686   17.6470    8.1430 C.ar    1  UNL1        0.0000
   1837 O          14.2017   18.9897    5.2968 O.3     1  UNL1        0.0000
   1838 O           7.5584   13.0985    7.9563 O.3     1  UNL1        0.0000
   1839 O           9.3971   11.7927    8.0011 O.3     1  UNL1        0.0000
   1840 O          12.2303   20.0692    5.1330 O.3     1  UNL1        0.0000
   1841 N          15.3565   26.7382   27.8088 N.pl3  36  UNL36       0.0000
   1842 N          15.2368   24.9799   26.5262 N.pl3  36  UNL36       0.0000
   1843 C          15.7234   27.1384   26.5334 C.2    36  UNL36       0.0000
   1844 C          15.6528   26.0334   25.7298 C.2    36  UNL36       0.0000
   1845 C          16.4408   22.8318   26.1555 C.3    36  UNL36       0.0000
   1846 C          15.3155   27.6076   28.9896 C.3    36  UNL36       0.0000
   1847 C          15.0569   25.4263   27.7826 C.3    36  UNL36       0.0000
   1848 C          15.1084   23.5737   26.0937 C.3    36  UNL36       0.0000
   1849 H          15.9861   28.1640   26.3127 H      36  UNL36       0.0000
   1850 H          15.8473   25.9031   24.6726 H      36  UNL36       0.0000
   1851 H          17.1906   23.2884   25.4972 H      36  UNL36       0.0000
   1852 H          16.3102   28.0377   29.1520 H      36  UNL36       0.0000
   1853 H          16.8398   22.8031   27.1784 H      36  UNL36       0.0000
   1854 H          14.5745   28.3982   28.8276 H      36  UNL36       0.0000
   1855 H          16.3022   21.7919   25.8281 H      36  UNL36       0.0000
   1856 H          14.6863   23.5982   25.0799 H      36  UNL36       0.0000
   1857 H          15.0307   27.0089   29.8596 H      36  UNL36       0.0000
   1858 H          14.6999   24.8294   28.6147 H      36  UNL36       0.0000
   1859 H          14.3486   23.1188   26.7384 H      36  UNL36       0.0000
   1860 TI          1.9923    9.2186   24.3741 Ti      1  UNL1        0.0000
   1861 TI         12.8228   12.0998   15.0092 Ti      1  UNL1        0.0000
   1862 TI          6.0890    5.2824   22.5541 Ti      1  UNL1        0.0000
   1863 TI          7.6002   14.4445   16.7810 Ti      1  UNL1        0.0000
   1864 TI          6.6016   16.1228   14.8767 Ti      1  UNL1        0.0000
   1865 TI          7.9772    5.0280   24.5074 Ti      1  UNL1        0.0000
   1866 TI          2.9415    7.4827   22.4826 Ti      1  UNL1        0.0000
   1867 TI         10.8350   12.4023   16.8567 Ti      1  UNL1        0.0000
   1868 H           2.4942   13.1157   24.1546 H       1  UNL1        0.0000
   1869 H          13.6316    8.1937   15.3299 H       1  UNL1        0.0000
   1870 H          -1.9676    8.4619   23.9916 H       1  UNL1        0.0000
   1871 H          16.2049   14.1041   15.2099 H       1  UNL1        0.0000
   1872 H           8.9528    0.9935   24.1215 H       1  UNL1        0.0000
   1873 H           2.5431   15.5329   15.1987 H       1  UNL1        0.0000
   1874 H           7.0961   14.4860   13.0036 H       1  UNL1        0.0000
   1875 H          10.9473   11.8571   13.3093 H       1  UNL1        0.0000
   1876 H           8.4871    4.3609   18.9963 H       1  UNL1        0.0000
   1877 H           5.8768   16.2815   20.4000 H       1  UNL1        0.0000
   1878 H          -1.1311   10.8713   22.1267 H       1  UNL1        0.0000
   1879 H          15.5776   10.0155   17.3152 H       1  UNL1        0.0000
   1880 H           1.1700    9.4239   18.7928 H       1  UNL1        0.0000
   1881 H           3.5016   17.9507   17.2299 H       1  UNL1        0.0000
   1882 H           6.9939   19.2256   15.7321 H       1  UNL1        0.0000
   1883 H          13.4737    6.1749   16.5324 H       1  UNL1        0.0000
   1884 H           9.6928   14.1246   15.4424 H       1  UNL1        0.0000
   1885 H           5.0083    7.1308   23.8477 H       1  UNL1        0.0000
   1886 H          12.2120    6.9629   22.8971 H       1  UNL1        0.0000
   1887 H          10.7308    6.4938   23.6444 H       1  UNL1        0.0000
   1888 H          12.7861   11.3965   21.7982 H       1  UNL1        0.0000
   1889 H          12.2164   11.7551   20.1797 H       1  UNL1        0.0000
   1890 H          11.7231    2.0081   22.7071 H       1  UNL1        0.0000
   1891 H          10.4440    3.1086   23.1645 H       1  UNL1        0.0000
   1892 C          13.4008   11.3585   17.8728 C.3     1  UNL1        0.0000
   1893 C           1.0318    9.4800   21.5270 C.3     1  UNL1        0.0000
   1894 C           8.6695    4.2717   21.6294 C.3     1  UNL1        0.0000
   1895 C           5.6641   16.4150   17.7404 C.3     1  UNL1        0.0000
   1896 C          14.2969   10.7542   18.8680 C.ar    1  UNL1        0.0000
   1897 C           0.0999   10.1050   20.5500 C.ar    1  UNL1        0.0000
   1898 C           9.6097    3.6573   20.6822 C.ar    1  UNL1        0.0000
   1899 C           4.7743   17.0618   18.7402 C.ar    1  UNL1        0.0000
   1900 C          14.0481   10.8291   20.2744 C.ar    1  UNL1        0.0000
   1901 C           0.3163    9.9850   19.1620 C.ar    1  UNL1        0.0000
   1902 C          10.7392    2.8970   21.1352 C.ar    1  UNL1        0.0000
   1903 C           3.6795   17.8348   18.2953 C.ar    1  UNL1        0.0000
   1904 C           5.0288   16.8911   20.0951 C.ar    1  UNL1        0.0000
   1905 C           9.3620    3.7895   19.2982 C.ar    1  UNL1        0.0000
   1906 C          15.4305   10.0552   18.3923 C.ar    1  UNL1        0.0000
   1907 C          -1.0003   10.7974   21.0487 C.ar    1  UNL1        0.0000
   1908 C          13.6126    8.2728   13.1858 C.ar    1  UNL1        0.0000
   1909 C           7.1429   20.0644   13.2108 C.ar    1  UNL1        0.0000
   1910 C          16.0970   14.0359   13.0598 C.ar    1  UNL1        0.0000
   1911 C           2.7387   15.5784   13.0404 C.ar    1  UNL1        0.0000
   1912 C           8.3469   12.1013   18.7456 C.3     1  UNL1        0.0000
   1913 C           3.5908    5.0070   20.6638 C.3     1  UNL1        0.0000
   1914 C          13.4768    9.7277   13.1626 C.3     1  UNL1        0.0000
   1915 C           7.0501   18.6309   13.1734 C.3     1  UNL1        0.0000
   1916 C          14.7992   13.4191   13.1067 C.3     1  UNL1        0.0000
   1917 C           4.1410   15.9927   13.0649 C.3     1  UNL1        0.0000
   1918 C          13.6520    7.6037   14.4155 C.ar    1  UNL1        0.0000
   1919 C           2.5051   13.7041   25.0685 C.ar    1  UNL1        0.0000
   1920 C          16.7523   14.3107   14.2938 C.ar    1  UNL1        0.0000
   1921 C          -2.5291    8.2826   24.9070 C.ar    1  UNL1        0.0000
   1922 C          12.1567    7.2382   24.9215 C.ar    1  UNL1        0.0000
   1923 C           2.0415   15.3479   14.2529 C.ar    1  UNL1        0.0000
   1924 C           8.9945    0.4663   25.0706 C.ar    1  UNL1        0.0000
   1925 C           7.1567   20.8156   14.4401 C.ar    1  UNL1        0.0000
   1926 N           7.2117   20.2167   15.6783 N.pl3   1  UNL1        0.0000
   1927 N          11.5777    7.0554   23.6825 N.pl3   1  UNL1        0.0000
   1928 N          12.9672   11.4754   20.8057 N.pl3   1  UNL1        0.0000
   1929 N          11.0702    2.7388   22.4526 N.pl3   1  UNL1        0.0000
   1930 O          12.2245   11.7636   18.2386 O.3     1  UNL1        0.0000
   1931 O           1.8008    8.5291   21.1287 O.3     1  UNL1        0.0000
   1932 O           9.0510    4.3962   22.8505 O.3     1  UNL1        0.0000
   1933 O           5.5982   16.8447   16.5408 O.3     1  UNL1        0.0000
   1934 O           6.4345   15.4578   18.1269 O.3     1  UNL1        0.0000
   1935 O           7.4991    4.6401   21.2238 O.3     1  UNL1        0.0000
   1936 O          13.8127   11.4393   16.6610 O.3     1  UNL1        0.0000
   1937 O           0.9898    9.9162   22.7267 O.3     1  UNL1        0.0000
   1938 O          11.1402   11.1844   15.6620 O.3     1  UNL1        0.0000
   1939 O           3.4940    9.0430   23.2271 O.3     1  UNL1        0.0000
   1940 O          12.0790   13.4717   16.1120 O.3     1  UNL1        0.0000
   1941 O           1.7418    7.3184   23.7198 O.3     1  UNL1        0.0000
   1942 O           6.3483    4.1104   23.8145 O.3     1  UNL1        0.0000
   1943 O           8.1168   16.0058   16.0426 O.3     1  UNL1        0.0000
   1944 O           7.3023    6.3719   23.3503 O.3     1  UNL1        0.0000
   1945 O           6.4105   14.2487   15.5251 O.3     1  UNL1        0.0000
   1946 O           8.7195    3.2562   25.1166 O.3     1  UNL1        0.0000
   1947 O           6.9670   17.9294   14.2686 O.3     1  UNL1        0.0000
   1948 O           9.5217    6.0444   25.1114 O.3     1  UNL1        0.0000
   1949 O           4.7311   16.0937   14.2085 O.3     1  UNL1        0.0000
   1950 O          14.2599   13.1189   14.2547 O.3     1  UNL1        0.0000
   1951 O           0.1055    9.1585   25.0425 O.3     1  UNL1        0.0000
   1952 O          13.4643   10.3646   14.2841 O.3     1  UNL1        0.0000
   1953 O           2.3737   10.9409   25.1238 O.3     1  UNL1        0.0000
   1954 O           9.3320   13.5759   16.1631 O.3     1  UNL1        0.0000
   1955 O           4.6301    6.5721   23.1441 O.3     1  UNL1        0.0000
   1956 O          11.7861   12.3508   13.2303 O.3     1  UNL1        0.0000
   1957 O           7.2185   15.4528   13.0635 O.3     1  UNL1        0.0000
   1958 H           8.6542    8.5966   21.8113 H       1  UNL1        0.0000
   1959 H           4.7299    2.8955   19.4179 H       1  UNL1        0.0000
   1960 H           9.4502   17.6129   18.1379 H       1  UNL1        0.0000
   1961 H           9.6017   10.0865   20.0252 H       1  UNL1        0.0000
   1962 H           4.9056   10.7004   21.5764 H       1  UNL1        0.0000
   1963 H           1.0638    5.1228   19.7389 H       1  UNL1        0.0000
   1964 H           6.3162    8.9120   22.5581 H       1  UNL1        0.0000
   1965 H           5.8589   12.1980   19.7934 H       1  UNL1        0.0000
   1966 H          10.7719   15.7619   17.1362 H       1  UNL1        0.0000
   1967 H          -2.8652   15.9724   17.6845 H       1  UNL1        0.0000
   1968 C           7.7858   11.2299   19.8086 C.ar    1  UNL1        0.0000
   1969 C           6.7294    9.5710   21.7959 C.ar    1  UNL1        0.0000
   1970 C          11.2390   16.4373   17.8522 C.ar    1  UNL1        0.0000
   1971 C           2.9604    4.1013   19.6665 C.ar    1  UNL1        0.0000
   1972 C           6.4595   11.4108   20.2448 C.ar    1  UNL1        0.0000
   1973 C           8.0515    9.3887   21.3694 C.ar    1  UNL1        0.0000
   1974 C          10.4983   17.4885   18.4099 C.ar    1  UNL1        0.0000
   1975 C           3.6951    3.0372   19.1120 C.ar    1  UNL1        0.0000
   1976 C          12.5769   16.2399   18.2159 C.ar    1  UNL1        0.0000
   1977 C           1.6177    4.2996   19.2920 C.ar    1  UNL1        0.0000
   1978 C           8.5803   10.2155   20.3772 C.ar    1  UNL1        0.0000
   1979 C           5.9340   10.5805   21.2376 C.ar    1  UNL1        0.0000
   1980 O           9.5671   11.9233   18.3914 O.3     1  UNL1        0.0000
   1981 O           2.9237    6.0321   21.0509 O.3     1  UNL1        0.0000
   1982 O           4.7624    4.7263   21.0957 O.3     1  UNL1        0.0000
   1983 O           7.5956   13.0028   18.2276 O.3     1  UNL1        0.0000
   1984 N          10.7219   19.6717   40.9034 N.pl3  37  UNL37       0.0000
   1985 N          10.6022   17.9135   39.6208 N.pl3  37  UNL37       0.0000
   1986 C          11.0888   20.0719   39.6280 C.2    37  UNL37       0.0000
   1987 C          11.0182   18.9669   38.8244 C.2    37  UNL37       0.0000
   1988 C          11.8062   15.7653   39.2502 C.3    37  UNL37       0.0000
   1989 C          10.6808   20.5411   42.0842 C.3    37  UNL37       0.0000
   1990 C          10.4223   18.3599   40.8772 C.3    37  UNL37       0.0000
   1991 C          10.4737   16.5073   39.1883 C.3    37  UNL37       0.0000
   1992 H          11.3514   21.0976   39.4073 H      37  UNL37       0.0000
   1993 H          11.2127   18.8366   37.7672 H      37  UNL37       0.0000
   1994 H          12.5560   16.2219   38.5918 H      37  UNL37       0.0000
   1995 H          11.6755   20.9712   42.2466 H      37  UNL37       0.0000
   1996 H          12.2051   15.7366   40.2730 H      37  UNL37       0.0000
   1997 H           9.9399   21.3318   41.9222 H      37  UNL37       0.0000
   1998 H          11.6675   14.7255   38.9227 H      37  UNL37       0.0000
   1999 H          10.0516   16.5318   38.1745 H      37  UNL37       0.0000
   2000 H          10.3960   19.9425   42.9542 H      37  UNL37       0.0000
   2001 H          10.0652   17.7630   41.7093 H      37  UNL37       0.0000
   2002 H           9.7139   16.0523   39.8330 H      37  UNL37       0.0000
   2003 TI         -2.6423    2.1521   37.4687 Ti      1  UNL1        0.0000
   2004 TI          8.1882    5.0333   28.1039 Ti      1  UNL1        0.0000
   2005 TI          1.4544   -1.7841   35.6487 Ti      1  UNL1        0.0000
   2006 TI          2.9656    7.3781   29.8757 Ti      1  UNL1        0.0000
   2007 TI          1.9670    9.0564   27.9713 Ti      1  UNL1        0.0000
   2008 TI          3.3426   -2.0384   37.6021 Ti      1  UNL1        0.0000
   2009 TI         -1.6931    0.4162   35.5772 Ti      1  UNL1        0.0000
   2010 TI          6.2003    5.3359   29.9513 Ti      1  UNL1        0.0000
   2011 H          -2.1404    6.0492   37.2492 H      17  UNL17       0.0000
   2012 H           8.9969    1.1273   28.4245 H       1  UNL1        0.0000
   2013 H          -6.6022    1.3955   37.0862 H       7  UNL7        0.0000
   2014 H          11.5703    7.0376   28.3045 H       1  UNL1        0.0000
   2015 H           4.3182   -6.0729   37.2161 H      14  UNL14       0.0000
   2016 H          -2.0915    8.4665   28.2933 H       1  UNL1        0.0000
   2017 H           2.4614    7.4196   26.0982 H       1  UNL1        0.0000
   2018 H           6.3126    4.7907   26.4039 H       1  UNL1        0.0000
   2019 H           3.8525   -2.7055   32.0910 H       1  UNL1        0.0000
   2020 H           1.2421    9.2151   33.4946 H       1  UNL1        0.0000
   2021 H          -5.7657    3.8049   35.2213 H       1  UNL1        0.0000
   2022 H          10.9429    2.9490   30.4099 H       1  UNL1        0.0000
   2023 H          -3.4646    2.3574   31.8874 H       1  UNL1        0.0000
   2024 H          -1.1331   10.8842   30.3245 H       1  UNL1        0.0000
   2025 H           2.3592   12.1592   28.8267 H       1  UNL1        0.0000
   2026 H           8.8391   -0.8915   29.6270 H       1  UNL1        0.0000
   2027 H           5.0582    7.0582   28.5370 H       1  UNL1        0.0000
   2028 H           0.3737    0.0643   36.9423 H       1  UNL1        0.0000
   2029 H           7.5773   -0.1036   35.9917 H      18  UNL18       0.0000
   2030 H           6.0962   -0.5726   36.7391 H      18  UNL18       0.0000
   2031 H           8.1514    4.3301   34.8928 H       1  UNL1        0.0000
   2032 H           7.5817    4.6887   33.2743 H       1  UNL1        0.0000
   2033 H           7.0885   -5.0584   35.8017 H       1  UNL1        0.0000
   2034 H           5.8093   -3.9578   36.2591 H       1  UNL1        0.0000
   2035 C           8.7662    4.2921   30.9674 C.3     1  UNL1        0.0000
   2036 C          -3.6029    2.4135   34.6216 C.3     1  UNL1        0.0000
   2037 C           4.0349   -2.7948   34.7240 C.3     1  UNL1        0.0000
   2038 C           1.0294    9.3486   30.8350 C.3     1  UNL1        0.0000
   2039 C           9.6622    3.6878   31.9626 C.ar    1  UNL1        0.0000
   2040 C          -4.5348    3.0385   33.6446 C.ar    1  UNL1        0.0000
   2041 C           4.9751   -3.4091   33.7768 C.ar    1  UNL1        0.0000
   2042 C           0.1396    9.9954   31.8348 C.ar    1  UNL1        0.0000
   2043 C           9.4134    3.7627   33.3690 C.ar    1  UNL1        0.0000
   2044 C          -4.3184    2.9186   32.2566 C.ar    1  UNL1        0.0000
   2045 C           6.1045   -4.1694   34.2298 C.ar    1  UNL1        0.0000
   2046 C          -0.9551   10.7683   31.3899 C.ar    1  UNL1        0.0000
   2047 C           0.3941    9.8246   33.1897 C.ar    1  UNL1        0.0000
   2048 C           4.7274   -3.2770   32.3929 C.ar    1  UNL1        0.0000
   2049 C          10.7959    2.9888   31.4869 C.ar    1  UNL1        0.0000
   2050 C          -5.6349    3.7309   34.1433 C.ar    1  UNL1        0.0000
   2051 C           8.9780    1.2064   26.2804 C.ar    1  UNL1        0.0000
   2052 C           2.5082   12.9980   26.3055 C.ar    1  UNL1        0.0000
   2053 C          11.4624    6.9695   26.1544 C.ar    1  UNL1        0.0000
   2054 C          -1.8959    8.5119   26.1351 C.ar    1  UNL1        0.0000
   2055 C           3.7123    5.0349   31.8402 C.3     1  UNL1        0.0000
   2056 C          -1.0438   -2.0595   33.7584 C.3     1  UNL1        0.0000
   2057 C           8.8421    2.6612   26.2572 C.3     1  UNL1        0.0000
   2058 C           2.4155   11.5644   26.2680 C.3     1  UNL1        0.0000
   2059 C          10.1646    6.3527   26.2013 C.3     1  UNL1        0.0000
   2060 C          -0.4936    8.9263   26.1595 C.3     1  UNL1        0.0000
   2061 C           9.0173    0.5373   27.5101 C.ar    1  UNL1        0.0000
   2062 C          -2.1295    6.6376   38.1631 C.2    17  UNL17       0.0000
   2063 C          12.1177    7.2443   27.3884 C.ar    1  UNL1        0.0000
   2064 C          -7.1637    1.2161   38.0016 C.2     7  UNL7        0.0000
   2065 C           7.5221    0.1718   38.0161 C.2    18  UNL18       0.0000
   2066 C          -2.5931    8.2815   27.3475 C.ar    1  UNL1        0.0000
   2067 C           4.3598   -6.6001   38.1652 C.2    14  UNL14       0.0000
   2068 C           2.5220   13.7491   27.5347 C.ar    1  UNL1        0.0000
   2069 N           2.5771   13.1503   28.7729 N.pl3   1  UNL1        0.0000
   2070 N           6.9430   -0.0111   36.7771 N.pl3  18  UNL18       0.0000
   2071 N           8.3326    4.4090   33.9003 N.pl3   1  UNL1        0.0000
   2072 N           6.4355   -4.3277   35.5472 N.pl3   1  UNL1        0.0000
   2073 O           7.5899    4.6972   31.3332 O.3     1  UNL1        0.0000
   2074 O          -2.8339    1.4627   34.2234 O.3     1  UNL1        0.0000
   2075 O           4.4163   -2.6703   35.9451 O.3     1  UNL1        0.0000
   2076 O           0.9636    9.7782   29.6354 O.3     1  UNL1        0.0000
   2077 O           1.7999    8.3914   31.2215 O.3     1  UNL1        0.0000
   2078 O           2.8644   -2.4263   34.3184 O.3     1  UNL1        0.0000
   2079 O           9.1781    4.3729   29.7556 O.3     1  UNL1        0.0000
   2080 O          -3.6449    2.8498   35.8213 O.3     1  UNL1        0.0000
   2081 O           6.5056    4.1180   28.7566 O.3     1  UNL1        0.0000
   2082 O          -1.1407    1.9766   36.3217 O.3     1  UNL1        0.0000
   2083 O           7.4443    6.4053   29.2066 O.3     1  UNL1        0.0000
   2084 O          -2.8928    0.2519   36.8144 O.3     1  UNL1        0.0000
   2085 O           1.7137   -2.9560   36.9091 O.3     1  UNL1        0.0000
   2086 O           3.4821    8.9394   29.1372 O.3     1  UNL1        0.0000
   2087 O           2.6676   -0.6945   36.4449 O.3     1  UNL1        0.0000
   2088 O           1.7759    7.1823   28.6197 O.3     1  UNL1        0.0000
   2089 O           4.0849   -3.8103   38.2112 O.3     1  UNL1        0.0000
   2090 O           2.3324   10.8630   27.3632 O.3     1  UNL1        0.0000
   2091 O           4.8870   -1.0221   38.2060 O.3     1  UNL1        0.0000
   2092 O           0.0964    9.0273   27.3031 O.3     1  UNL1        0.0000
   2093 O           9.6252    6.0525   27.3493 O.3     1  UNL1        0.0000
   2094 O          -4.5291    2.0921   38.1371 O.3     1  UNL1        0.0000
   2095 O           8.8297    3.2981   27.3787 O.3     1  UNL1        0.0000
   2096 O          -2.2609    3.8744   38.2184 O.3     1  UNL1        0.0000
   2097 O           4.6973    6.5094   29.2577 O.3     1  UNL1        0.0000
   2098 O          -0.0046   -0.4944   36.2387 O.3     1  UNL1        0.0000
   2099 O           7.1515    5.2843   26.3249 O.3     1  UNL1        0.0000
   2100 O           2.5838    8.3864   26.1582 O.3     1  UNL1        0.0000
   2101 H           4.0195    1.5301   34.9059 H       1  UNL1        0.0000
   2102 H           0.0953   -4.1709   32.5125 H       1  UNL1        0.0000
   2103 H           4.8156   10.5464   31.2325 H       1  UNL1        0.0000
   2104 H           4.9671    3.0201   33.1198 H       1  UNL1        0.0000
   2105 H           0.2710    3.6340   34.6710 H       1  UNL1        0.0000
   2106 H          -3.5708   -1.9436   32.8335 H       1  UNL1        0.0000
   2107 H           1.6815    1.8455   35.6527 H       1  UNL1        0.0000
   2108 H           1.2243    5.1316   32.8880 H       1  UNL1        0.0000
   2109 H           6.1373    8.6955   30.2309 H       1  UNL1        0.0000
   2110 H          -7.4999    8.9060   30.7791 H       1  UNL1        0.0000
   2111 C           3.1511    4.1635   32.9033 C.ar    1  UNL1        0.0000
   2112 C           2.0948    2.5046   34.8905 C.ar    1  UNL1        0.0000
   2113 C           6.6043    9.3708   30.9468 C.ar    1  UNL1        0.0000
   2114 C          -1.6742   -2.9652   32.7611 C.ar    1  UNL1        0.0000
   2115 C           1.8249    4.3444   33.3394 C.ar    1  UNL1        0.0000
   2116 C           3.4169    2.3222   34.4640 C.ar    1  UNL1        0.0000
   2117 C           5.8637   10.4221   31.5045 C.ar    1  UNL1        0.0000
   2118 C          -0.9395   -4.0292   32.2066 C.ar    1  UNL1        0.0000
   2119 C           7.9422    9.1734   31.3105 C.ar    1  UNL1        0.0000
   2120 C          -3.0169   -2.7668   32.3866 C.ar    1  UNL1        0.0000
   2121 C           3.9457    3.1491   33.4718 C.ar    1  UNL1        0.0000
   2122 C           1.2993    3.5141   34.3323 C.ar    1  UNL1        0.0000
   2123 O           4.9324    4.8568   31.4860 O.3     1  UNL1        0.0000
   2124 O          -1.7109   -1.0344   34.1455 O.3     1  UNL1        0.0000
   2125 O           0.1278   -2.3401   34.1903 O.3     1  UNL1        0.0000
   2126 O           2.9610    5.9364   31.3222 O.3     1  UNL1        0.0000
   2127 N           6.0872   12.6053   53.9980 N.pl3  38  UNL38       0.0000
   2128 N           5.9675   10.8470   52.7154 N.pl3  38  UNL38       0.0000
   2129 C           6.4541   13.0055   52.7226 C.2    38  UNL38       0.0000
   2130 C           6.3835   11.9005   51.9190 C.2    38  UNL38       0.0000
   2131 C           7.1715    8.6989   52.3448 C.3    38  UNL38       0.0000
   2132 C           6.0462   13.4747   55.1788 C.3    38  UNL38       0.0000
   2133 C           5.7877   11.2934   53.9718 C.3    38  UNL38       0.0000
   2134 C           5.8391    9.4409   52.2829 C.3    38  UNL38       0.0000
   2135 H           6.7168   14.0311   52.5019 H      38  UNL38       0.0000
   2136 H           6.5780   11.7702   50.8618 H      38  UNL38       0.0000
   2137 H           7.9214    9.1555   51.6864 H      38  UNL38       0.0000
   2138 H           7.0409   13.9048   55.3413 H      38  UNL38       0.0000
   2139 H           7.5705    8.6702   53.3676 H      38  UNL38       0.0000
   2140 H           5.3052   14.2653   55.0168 H      38  UNL38       0.0000
   2141 H           7.0329    7.6590   52.0173 H      38  UNL38       0.0000
   2142 H           5.4170    9.4654   51.2691 H      38  UNL38       0.0000
   2143 H           5.7614   12.8760   56.0488 H      38  UNL38       0.0000
   2144 H           5.4306   10.6965   54.8039 H      38  UNL38       0.0000
   2145 H           5.0793    8.9859   52.9277 H      38  UNL38       0.0000
   2146 TI          0.1099   30.8975   11.2229 Ti      1  UNL1        0.0000
   2147 TI         10.9404   33.7787    1.8581 Ti      1  UNL1        0.0000
   2148 TI          4.2066   26.9613    9.4029 Ti      1  UNL1        0.0000
   2149 TI          5.7178   36.1235    3.6299 Ti      1  UNL1        0.0000
   2150 TI          4.7192   37.8018    1.7255 Ti      1  UNL1        0.0000
   2151 TI          6.0948   26.7070   11.3563 Ti      1  UNL1        0.0000
   2152 TI          1.0591   29.1616    9.3315 Ti      1  UNL1        0.0000
   2153 TI          8.9526   34.0813    3.7056 Ti      1  UNL1        0.0000
   2154 H           0.6118   34.7946   11.0035 H       1  UNL1        0.0000
   2155 H          11.7492   29.8727    2.1788 H       1  UNL1        0.0000
   2156 H          -3.8500   30.1409   10.8405 H       1  UNL1        0.0000
   2157 H          14.3226   35.7830    2.0588 H       1  UNL1        0.0000
   2158 H           7.0704   22.6724   10.9704 H       1  UNL1        0.0000
   2159 H           0.6607   37.2119    2.0476 H       1  UNL1        0.0000
   2160 H           5.2137   36.1650   -0.1476 H       1  UNL1        0.0000
   2161 H           9.0649   33.5360    0.1582 H       1  UNL1        0.0000
   2162 H           6.6047   26.0399    5.8452 H       1  UNL1        0.0000
   2163 H           3.9944   37.9605    7.2489 H       1  UNL1        0.0000
   2164 H          -3.0135   32.5503    8.9755 H       1  UNL1        0.0000
   2165 H          13.6952   31.6944    4.1641 H       1  UNL1        0.0000
   2166 H          -0.7124   31.1028    5.6417 H       1  UNL1        0.0000
   2167 H           1.6192   39.6296    4.0788 H       1  UNL1        0.0000
   2168 H           5.1115   40.9046    2.5810 H       1  UNL1        0.0000
   2169 H          11.5914   27.8538    3.3813 H       1  UNL1        0.0000
   2170 H           7.8104   35.8036    2.2913 H       1  UNL1        0.0000
   2171 H           3.1259   28.8097   10.6966 H       1  UNL1        0.0000
   2172 H          10.3296   28.6418    9.7460 H       1  UNL1        0.0000
   2173 H           8.8484   28.1728   10.4933 H       1  UNL1        0.0000
   2174 H          10.9037   33.0755    8.6471 H       1  UNL1        0.0000
   2175 H          10.3340   33.4340    7.0285 H       1  UNL1        0.0000
   2176 H           9.8408   23.6870    9.5559 H       1  UNL1        0.0000
   2177 H           8.5616   24.7876   10.0133 H       1  UNL1        0.0000
   2178 C          11.5185   33.0375    4.7216 C.3     1  UNL1        0.0000
   2179 C          -0.8506   31.1589    8.3759 C.3     1  UNL1        0.0000
   2180 C           6.7871   25.9506    8.4782 C.3     1  UNL1        0.0000
   2181 C           3.7817   38.0940    4.5893 C.3     1  UNL1        0.0000
   2182 C          12.4145   32.4332    5.7168 C.ar    1  UNL1        0.0000
   2183 C          -1.7825   31.7839    7.3989 C.ar    1  UNL1        0.0000
   2184 C           7.7273   25.3363    7.5310 C.ar    1  UNL1        0.0000
   2185 C           2.8919   38.7408    5.5891 C.2     1  UNL1        0.0000
   2186 C          12.1657   32.5081    7.1233 C.ar    1  UNL1        0.0000
   2187 C          -1.5661   31.6639    6.0108 C.ar    1  UNL1        0.0000
   2188 C           8.8568   24.5760    7.9841 C.ar    1  UNL1        0.0000
   2189 C           1.7972   39.5137    5.1441 C.3     1  UNL1        0.0000
   2190 C           3.1464   38.5700    6.9440 C.2     1  UNL1        0.0000
   2191 C           7.4796   25.4684    6.1471 C.ar    1  UNL1        0.0000
   2192 C          13.5481   31.7342    5.2411 C.ar    1  UNL1        0.0000
   2193 C          -2.8827   32.4763    7.8975 C.ar    1  UNL1        0.0000
   2194 C          11.7302   29.9517    0.0347 C.2     1  UNL1        0.0000
   2195 C           5.2605   41.7433    0.0597 C.2     1  UNL1        0.0000
   2196 C          14.2147   35.7149   -0.0913 C.2     1  UNL1        0.0000
   2197 C           0.8563   37.2573   -0.1107 C.2     1  UNL1        0.0000
   2198 C           6.4645   33.7803    5.5945 C.3     1  UNL1        0.0000
   2199 C           1.7084   26.6859    7.5126 C.3     1  UNL1        0.0000
   2200 C          11.5944   31.4066    0.0115 C.2     1  UNL1        0.0000
   2201 C           5.1677   40.3098    0.0222 C.2     1  UNL1        0.0000
   2202 C          12.9168   35.0980   -0.0444 C.2     1  UNL1        0.0000
   2203 C           2.2586   37.6716   -0.0862 C.2     1  UNL1        0.0000
   2204 C          11.7696   29.2826    1.2644 C.2     1  UNL1        0.0000
   2205 C           0.6227   35.3830   11.9174 C.3     1  UNL1        0.0000
   2206 C          14.8700   35.9897    1.1427 C.2     1  UNL1        0.0000
   2207 C          -4.4114   29.9615   11.7558 C.ar    1  UNL1        0.0000
   2208 C          10.2743   28.9172   11.7703 C.ar    1  UNL1        0.0000
   2209 C           0.1591   37.0269    1.1018 C.2     1  UNL1        0.0000
   2210 C           7.1121   22.1453   11.9194 C.ar    1  UNL1        0.0000
   2211 C           5.2743   42.4945    1.2890 C.3     1  UNL1        0.0000
   2212 N           5.3293   41.8957    2.5272 N.3     1  UNL1        0.0000
   2213 N           9.6953   28.7343   10.5314 N.pl3   1  UNL1        0.0000
   2214 N          11.0848   33.1543    7.6546 N.pl3   1  UNL1        0.0000
   2215 N           9.1878   24.4177    9.3015 N.pl3   1  UNL1        0.0000
   2216 O          10.3421   33.4426    5.0874 O.3     1  UNL1        0.0000
   2217 O          -0.0816   30.2080    7.9776 O.3     1  UNL1        0.0000
   2218 O           7.1686   26.0751    9.6993 O.3     1  UNL1        0.0000
   2219 O           3.7158   38.5236    3.3897 O.3     1  UNL1        0.0000
   2220 O           4.5522   37.1367    4.9757 O.3     1  UNL1        0.0000
   2221 O           5.6167   26.3191    8.0727 O.3     1  UNL1        0.0000
   2222 O          11.9303   33.1182    3.5099 O.3     1  UNL1        0.0000
   2223 O          -0.8926   31.5952    9.5756 O.3     1  UNL1        0.0000
   2224 O           9.2578   32.8634    2.5109 O.3     1  UNL1        0.0000
   2225 O           1.6116   30.7220   10.0760 O.3     1  UNL1        0.0000
   2226 O          10.1966   35.1507    2.9609 O.3     1  UNL1        0.0000
   2227 O          -0.1406   28.9973   10.5686 O.3     1  UNL1        0.0000
   2228 O           4.4659   25.7894   10.6634 O.3     1  UNL1        0.0000
   2229 O           6.2344   37.6848    2.8914 O.3     1  UNL1        0.0000
   2230 O           5.4199   28.0508   10.1992 O.3     1  UNL1        0.0000
   2231 O           4.5281   35.9277    2.3740 O.3     1  UNL1        0.0000
   2232 O           6.8372   24.9351   11.9654 O.3     1  UNL1        0.0000
   2233 O           5.0846   39.6084    1.1174 O.2     1  UNL1        0.0000
   2234 O           7.6393   27.7233   11.9603 O.3     1  UNL1        0.0000
   2235 O           2.8487   37.7727    1.0574 O.2     1  UNL1        0.0000
   2236 O          12.3775   34.7979    1.1036 O.2     1  UNL1        0.0000
   2237 O          -1.7768   30.8375   11.8914 O.3     1  UNL1        0.0000
   2238 O          11.5819   32.0435    1.1330 O.2     1  UNL1        0.0000
   2239 O           0.4914   32.6198   11.9726 O.2     1  UNL1        0.0000
   2240 O           7.4496   35.2548    3.0120 O.3     1  UNL1        0.0000
   2241 O           2.7477   28.2510    9.9930 O.3     1  UNL1        0.0000
   2242 O           9.9037   34.0297    0.0792 O.3     1  UNL1        0.0000
   2243 O           5.3361   37.1318   -0.0876 O.3     1  UNL1        0.0000
   2244 H           6.7718   30.2755    8.6602 H       1  UNL1        0.0000
   2245 H           2.8476   24.5744    6.2668 H       1  UNL1        0.0000
   2246 H           7.5678   39.2918    4.9867 H      19  UNL19       0.0000
   2247 H           7.7194   31.7654    6.8740 H       1  UNL1        0.0000
   2248 H           3.0233   32.3794    8.4253 H       1  UNL1        0.0000
   2249 H          -0.8185   26.8018    6.5878 H       1  UNL1        0.0000
   2250 H           4.4338   30.5909    9.4070 H       1  UNL1        0.0000
   2251 H           3.9765   33.8769    6.6423 H       1  UNL1        0.0000
   2252 H           8.8895   37.4408    3.9851 H      19  UNL19       0.0000
   2253 H          -4.7476   37.6514    4.5334 H       8  UNL8        0.0000
   2254 C           5.9034   32.9089    6.6575 C.ar    1  UNL1        0.0000
   2255 C           4.8470   31.2500    8.6447 C.ar    1  UNL1        0.0000
   2256 C           9.3566   38.1162    4.7011 C.2    19  UNL19       0.0000
   2257 C           1.0780   25.7802    6.5154 C.ar    1  UNL1        0.0000
   2258 C           4.5771   33.0897    7.0937 C.ar    1  UNL1        0.0000
   2259 C           6.1691   31.0676    8.2183 C.ar    1  UNL1        0.0000
   2260 C           8.6159   39.1675    5.2588 C.3    19  UNL19       0.0000
   2261 C           1.8127   24.7162    5.9609 C.ar    1  UNL1        0.0000
   2262 C          10.6945   37.9188    5.0648 C.2    19  UNL19       0.0000
   2263 C          -0.2647   25.9786    6.1409 C.ar    1  UNL1        0.0000
   2264 C           6.6979   31.8945    7.2261 C.ar    1  UNL1        0.0000
   2265 C           4.0516   32.2595    8.0865 C.ar    1  UNL1        0.0000
   2266 O           7.6847   33.6022    5.2403 O.3     1  UNL1        0.0000
   2267 O           1.0414   27.7110    7.8998 O.3     1  UNL1        0.0000
   2268 O           2.8800   26.4052    7.9446 O.3     1  UNL1        0.0000
   2269 O           5.7132   34.6818    5.0765 O.3     1  UNL1        0.0000
   2270 N           8.8395   41.3507   27.7523 N.pl3  39  UNL39       0.0000
   2271 N           8.7198   39.5924   26.4697 N.pl3  39  UNL39       0.0000
   2272 C           9.2064   41.7509   26.4768 C.2    39  UNL39       0.0000
   2273 C           9.1358   40.6459   25.6732 C.2    39  UNL39       0.0000
   2274 C           9.9238   37.4443   26.0990 C.3    39  UNL39       0.0000
   2275 C           8.7984   42.2201   28.9331 C.3    39  UNL39       0.0000
   2276 C           8.5399   40.0388   27.7261 C.3    39  UNL39       0.0000
   2277 C           8.5913   38.1863   26.0372 C.3    39  UNL39       0.0000
   2278 H           9.4690   42.7765   26.2562 H      39  UNL39       0.0000
   2279 H           9.3303   40.5156   24.6161 H      39  UNL39       0.0000
   2280 H          10.6736   37.9009   25.4407 H      39  UNL39       0.0000
   2281 H           9.7932   42.6502   29.0955 H      39  UNL39       0.0000
   2282 H          10.3227   37.4156   27.1219 H      39  UNL39       0.0000
   2283 H           8.0575   43.0107   28.7711 H      39  UNL39       0.0000
   2284 H           9.7852   36.4044   25.7716 H      39  UNL39       0.0000
   2285 H           8.1693   38.2107   25.0234 H      39  UNL39       0.0000
   2286 H           8.5136   41.6214   29.8031 H      39  UNL39       0.0000
   2287 H           8.1828   39.4419   28.5582 H      39  UNL39       0.0000
   2288 H           7.8315   37.7313   26.6819 H      39  UNL39       0.0000
   2289 TI         -4.5247   23.8311   24.3175 Ti      1  UNL1        0.0000
   2290 TI          6.3058   26.7123   14.9527 Ti      1  UNL1        0.0000
   2291 TI         -0.4280   19.8949   22.4976 Ti      1  UNL1        0.0000
   2292 TI          1.0832   29.0570   16.7245 Ti      1  UNL1        0.0000
   2293 TI          0.0846   30.7353   14.8201 Ti      1  UNL1        0.0000
   2294 TI          1.4602   19.6405   24.4509 Ti      1  UNL1        0.0000
   2295 TI         -3.5755   22.0952   22.4261 Ti      1  UNL1        0.0000
   2296 TI          4.3180   27.0148   16.8002 Ti      1  UNL1        0.0000
   2297 H          -4.0228   27.7282   24.0981 H       1  UNL1        0.0000
   2298 H           7.1146   22.8062   15.2734 H       1  UNL1        0.0000
   2299 H          -8.4846   23.0745   23.9351 H       1  UNL1        0.0000
   2300 H           9.6879   28.7166   15.1534 H       1  UNL1        0.0000
   2301 H           2.4358   15.6060   24.0650 H       1  UNL1        0.0000
   2302 H          -3.9739   30.1454   15.1422 H       1  UNL1        0.0000
   2303 H           0.5791   29.0985   12.9471 H       1  UNL1        0.0000
   2304 H           4.4302   26.4696   13.2528 H       1  UNL1        0.0000
   2305 H           1.9701   18.9734   18.9398 H       1  UNL1        0.0000
   2306 H          -0.6403   30.8940   20.3435 H       1  UNL1        0.0000
   2307 H          -7.6481   25.4838   22.0702 H       1  UNL1        0.0000
   2308 H           9.0605   24.6280   17.2587 H       1  UNL1        0.0000
   2309 H          -5.3470   24.0364   18.7363 H       1  UNL1        0.0000
   2310 H          -3.0155   32.5632   17.1734 H       1  UNL1        0.0000
   2311 H           0.4768   33.8382   15.6756 H       1  UNL1        0.0000
   2312 H           6.9567   20.7874   16.4759 H       1  UNL1        0.0000
   2313 H           3.1758   28.7371   15.3859 H       1  UNL1        0.0000
   2314 H          -1.5087   21.7433   23.7912 H       1  UNL1        0.0000
   2315 H           5.6949   21.5754   22.8406 H       1  UNL1        0.0000
   2316 H           4.2138   21.1063   23.5879 H       1  UNL1        0.0000
   2317 H           6.2690   26.0090   21.7417 H       1  UNL1        0.0000
   2318 H           5.6993   26.3676   20.1231 H       1  UNL1        0.0000
   2319 H           5.2061   16.6206   22.6506 H       1  UNL1        0.0000
   2320 H           3.9270   17.7211   23.1080 H       1  UNL1        0.0000
   2321 C           6.8838   25.9711   17.8163 C.3     1  UNL1        0.0000
   2322 C          -5.4853   24.0925   21.4705 C.3     1  UNL1        0.0000
   2323 C           2.1525   18.8842   21.5728 C.3     1  UNL1        0.0000
   2324 C          -0.8529   31.0275   17.6839 C.3     1  UNL1        0.0000
   2325 C           7.7798   25.3667   18.8114 C.ar    1  UNL1        0.0000
   2326 C          -6.4172   24.7175   20.4935 C.ar    1  UNL1        0.0000
   2327 C           3.0927   18.2698   20.6256 C.ar    1  UNL1        0.0000
   2328 C          -1.7428   31.6743   18.6837 C.2     1  UNL1        0.0000
   2329 C           7.5311   25.4417   20.2179 C.ar    1  UNL1        0.0000
   2330 C          -6.2008   24.5975   19.1054 C.ar    1  UNL1        0.0000
   2331 C           4.2221   17.5095   21.0787 C.ar    1  UNL1        0.0000
   2332 C          -2.8375   32.4473   18.2388 C.3     1  UNL1        0.0000
   2333 C          -1.4883   31.5036   20.0386 C.2     1  UNL1        0.0000
   2334 C           2.8450   18.4020   19.2417 C.ar    1  UNL1        0.0000
   2335 C           8.9135   24.6678   18.3357 C.ar    1  UNL1        0.0000
   2336 C          -7.5173   25.4099   20.9921 C.ar    1  UNL1        0.0000
   2337 C           7.0956   22.8853   13.1293 C.ar    1  UNL1        0.0000
   2338 C           0.6258   34.6769   13.1543 C.2     1  UNL1        0.0000
   2339 C           9.5800   28.6484   13.0033 C.ar    1  UNL1        0.0000
   2340 C          -3.7783   30.1909   12.9839 C.ar    1  UNL1        0.0000
   2341 C           1.8299   26.7138   18.6891 C.3     1  UNL1        0.0000
   2342 C          -2.9262   19.6195   20.6073 C.3     1  UNL1        0.0000
   2343 C           6.9597   24.3402   13.1061 C.3     1  UNL1        0.0000
   2344 C           0.5331   33.2434   13.1168 C.2     1  UNL1        0.0000
   2345 C           8.2822   28.0316   13.0502 C.3     1  UNL1        0.0000
   2346 C          -2.3760   30.6052   13.0084 C.3     1  UNL1        0.0000
   2347 C           7.1349   22.2162   14.3590 C.ar    1  UNL1        0.0000
   2348 C          -4.0119   28.3166   25.0120 C.3     1  UNL1        0.0000
   2349 C          10.2353   28.9232   14.2373 C.ar    1  UNL1        0.0000
   2350 C          -9.0461   22.8951   24.8504 C.ar    1  UNL1        0.0000
   2351 C           5.6397   21.8507   24.8649 C.ar    1  UNL1        0.0000
   2352 C          -4.4755   29.9604   14.1964 C.ar    1  UNL1        0.0000
   2353 C           2.4774   15.0788   25.0141 C.ar    1  UNL1        0.0000
   2354 C           0.6396   35.4281   14.3836 C.3     1  UNL1        0.0000
   2355 N           0.6947   34.8293   15.6218 N.3     1  UNL1        0.0000
   2356 N           5.0606   21.6679   23.6260 N.pl3   1  UNL1        0.0000
   2357 N           6.4502   26.0879   20.7492 N.pl3   1  UNL1        0.0000
   2358 N           4.5531   17.3513   22.3961 N.pl3   1  UNL1        0.0000
   2359 O           5.7075   26.3762   18.1821 O.3     1  UNL1        0.0000
   2360 O          -4.7163   23.1416   21.0722 O.3     1  UNL1        0.0000
   2361 O           2.5339   19.0087   22.7939 O.3     1  UNL1        0.0000
   2362 O          -0.9188   31.4572   16.4843 O.3     1  UNL1        0.0000
   2363 O          -0.0825   30.0703   18.0703 O.3     1  UNL1        0.0000
   2364 O           0.9821   19.2526   21.1673 O.3     1  UNL1        0.0000
   2365 O           7.2957   26.0518   16.6045 O.3     1  UNL1        0.0000
   2366 O          -5.5273   24.5287   22.6702 O.3     1  UNL1        0.0000
   2367 O           4.6232   25.7969   15.6055 O.3     1  UNL1        0.0000
   2368 O          -3.0230   23.6555   23.1706 O.3     1  UNL1        0.0000
   2369 O           5.5620   28.0842   16.0555 O.3     1  UNL1        0.0000
   2370 O          -4.7752   21.9309   23.6632 O.3     1  UNL1        0.0000
   2371 O          -0.1687   18.7229   23.7580 O.3     1  UNL1        0.0000
   2372 O           1.5997   30.6183   15.9861 O.3     1  UNL1        0.0000
   2373 O           0.7852   20.9844   23.2938 O.3     1  UNL1        0.0000
   2374 O          -0.1065   28.8612   15.4686 O.3     1  UNL1        0.0000
   2375 O           2.2025   17.8687   25.0600 O.3     1  UNL1        0.0000
   2376 O           0.4500   32.5419   14.2120 O.2     1  UNL1        0.0000
   2377 O           3.0047   20.6569   25.0549 O.3     1  UNL1        0.0000
   2378 O          -1.7859   30.7062   14.1520 O.3     1  UNL1        0.0000
   2379 O           7.7428   27.7314   14.1982 O.3     1  UNL1        0.0000
   2380 O          -6.4115   23.7710   24.9860 O.3     1  UNL1        0.0000
   2381 O           6.9473   24.9771   14.2276 O.3     1  UNL1        0.0000
   2382 O          -4.1433   25.5534   25.0672 O.2     1  UNL1        0.0000
   2383 O           2.8150   28.1884   16.1066 O.3     1  UNL1        0.0000
   2384 O          -1.8870   21.1846   23.0876 O.3     1  UNL1        0.0000
   2385 O           5.2691   26.9633   13.1738 O.3     1  UNL1        0.0000
   2386 O           0.7014   30.0653   13.0070 O.3     1  UNL1        0.0000
   2387 H           2.1371   23.2091   21.7548 H       1  UNL1        0.0000
   2388 H          -1.7871   17.5080   19.3614 H       1  UNL1        0.0000
   2389 H           2.9332   32.2254   18.0814 H      20  UNL20       0.0000
   2390 H           3.0847   24.6990   19.9686 H       1  UNL1        0.0000
   2391 H          -1.6114   25.3129   21.5199 H       1  UNL1        0.0000
   2392 H          -5.4532   19.7353   19.6824 H       1  UNL1        0.0000
   2393 H          -0.2009   23.5245   22.5016 H       1  UNL1        0.0000
   2394 H          -0.6581   26.8105   19.7369 H       1  UNL1        0.0000
   2395 H           4.2549   30.3744   17.0797 H      20  UNL20       0.0000
   2396 H          -9.3822   30.5849   17.6280 H       9  UNL9        0.0000
   2397 C           1.2688   25.8424   19.7521 C.ar    1  UNL1        0.0000
   2398 C           0.2124   24.1835   21.7393 C.ar    1  UNL1        0.0000
   2399 C           4.7219   31.0498   17.7957 C.2    20  UNL20       0.0000
   2400 C          -3.5566   18.7138   19.6100 C.ar    1  UNL1        0.0000
   2401 C          -0.0575   26.0233   20.1883 C.ar    1  UNL1        0.0000
   2402 C           1.5345   24.0012   21.3129 C.ar    1  UNL1        0.0000
   2403 C           3.9813   32.1010   18.3534 C.3    20  UNL20       0.0000
   2404 C          -2.8219   17.6497   19.0555 C.ar    1  UNL1        0.0000
   2405 C           6.0598   30.8524   18.1594 C.2    20  UNL20       0.0000
   2406 C          -4.8993   18.9121   19.2355 C.ar    1  UNL1        0.0000
   2407 C           2.0633   24.8281   20.3207 C.ar    1  UNL1        0.0000
   2408 C          -0.5831   25.1930   21.1811 C.ar    1  UNL1        0.0000
   2409 O           3.0500   26.5358   18.3349 O.3     1  UNL1        0.0000
   2410 O          -3.5933   20.6446   20.9944 O.3     1  UNL1        0.0000
   2411 O          -1.7546   19.3388   21.0392 O.3     1  UNL1        0.0000
   2412 O           1.0786   27.6153   18.1711 O.3     1  UNL1        0.0000
   2413 N           4.2049   34.2842   40.8469 N.pl3  40  UNL40       0.0000
   2414 N           4.0851   32.5260   39.5643 N.pl3  40  UNL40       0.0000
   2415 C           4.5718   34.6844   39.5715 C.2    40  UNL40       0.0000
   2416 C           4.5011   33.5794   38.7678 C.2    40  UNL40       0.0000
   2417 C           5.2891   30.3778   39.1936 C.3    40  UNL40       0.0000
   2418 C           4.1638   35.1536   42.0277 C.3    40  UNL40       0.0000
   2419 C           3.9053   32.9724   40.8207 C.3    40  UNL40       0.0000
   2420 C           3.9567   31.1198   39.1318 C.3    40  UNL40       0.0000
   2421 H           4.8344   35.7101   39.3508 H      40  UNL40       0.0000
   2422 H           4.6956   33.4491   37.7107 H      40  UNL40       0.0000
   2423 H           6.0390   30.8344   38.5353 H      40  UNL40       0.0000
   2424 H           5.1585   35.5837   42.1901 H      40  UNL40       0.0000
   2425 H           5.6881   30.3492   40.2165 H      40  UNL40       0.0000
   2426 H           3.4228   35.9443   41.8657 H      40  UNL40       0.0000
   2427 H           5.1505   29.3380   38.8662 H      40  UNL40       0.0000
   2428 H           3.5346   31.1443   38.1180 H      40  UNL40       0.0000
   2429 H           3.8790   34.5550   42.8977 H      40  UNL40       0.0000
   2430 H           3.5482   32.3755   41.6528 H      40  UNL40       0.0000
   2431 H           3.1969   30.6648   39.7765 H      40  UNL40       0.0000
   2432 TI         -9.1594   16.7646   37.4121 Ti      1  UNL1        0.0000
   2433 TI          1.6711   19.6459   28.0473 Ti      1  UNL1        0.0000
   2434 TI         -5.0627   12.8284   35.5922 Ti      1  UNL1        0.0000
   2435 TI         -3.5515   21.9906   29.8191 Ti      1  UNL1        0.0000
   2436 TI         -4.5500   23.6689   27.9147 Ti      1  UNL1        0.0000
   2437 TI         -3.1745   12.5741   37.5455 Ti      1  UNL1        0.0000
   2438 TI         -8.2102   15.0288   35.5207 Ti      1  UNL1        0.0000
   2439 TI         -0.3167   19.9484   29.8948 Ti      1  UNL1        0.0000
   2440 H          -8.6575   20.6617   37.1927 H      21  UNL21       0.0000
   2441 H           2.4799   15.7398   28.3680 H       1  UNL1        0.0000
   2442 H         -13.1193   16.0080   37.0297 H      12  UNL12       0.0000
   2443 H           5.0533   21.6502   28.2480 H       1  UNL1        0.0000
   2444 H          -2.1989    8.5396   37.1596 H      17  UNL17       0.0000
   2445 H          -8.6086   23.0790   28.2368 H       1  UNL1        0.0000
   2446 H          -4.0556   22.0321   26.0417 H       1  UNL1        0.0000
   2447 H          -0.2044   19.4032   26.3474 H       1  UNL1        0.0000
   2448 H          -2.6646   11.9070   32.0344 H       1  UNL1        0.0000
   2449 H          -5.2749   23.8276   33.4381 H       1  UNL1        0.0000
   2450 H         -12.2828   18.4174   35.1648 H       1  UNL1        0.0000
   2451 H           4.4259   17.5615   30.3533 H       1  UNL1        0.0000
   2452 H          -9.9817   16.9699   31.8309 H       1  UNL1        0.0000
   2453 H          -7.6501   25.4967   30.2680 H       1  UNL1        0.0000
   2454 H          -4.1578   26.7717   28.7702 H       1  UNL1        0.0000
   2455 H           2.3221   13.7210   29.5705 H       1  UNL1        0.0000
   2456 H          -1.4589   21.6707   28.4805 H       1  UNL1        0.0000
   2457 H          -6.1434   14.6768   36.8858 H       1  UNL1        0.0000
   2458 H           1.0603   14.5090   35.9352 H      22  UNL22       0.0000
   2459 H          -0.4208   14.0399   36.6825 H      22  UNL22       0.0000
   2460 H           1.6344   18.9426   34.8363 H       1  UNL1        0.0000
   2461 H           1.0647   19.3012   33.2178 H       1  UNL1        0.0000
   2462 H           0.5715    9.5541   35.7452 H       1  UNL1        0.0000
   2463 H          -0.7077   10.6547   36.2026 H       1  UNL1        0.0000
   2464 C           2.2492   18.9046   30.9109 C.3     1  UNL1        0.0000
   2465 C         -10.1199   17.0260   34.5651 C.3     1  UNL1        0.0000
   2466 C          -2.4822   11.8177   34.6674 C.3     1  UNL1        0.0000
   2467 C          -5.4876   23.9611   30.7785 C.3     1  UNL1        0.0000
   2468 C           3.1452   18.3003   31.9061 C.ar    1  UNL1        0.0000
   2469 C         -11.0518   17.6510   33.5881 C.ar    1  UNL1        0.0000
   2470 C          -1.5420   11.2034   33.7203 C.ar    1  UNL1        0.0000
   2471 C          -6.3774   24.6079   31.7783 C.2     1  UNL1        0.0000
   2472 C           2.8964   18.3752   33.3125 C.ar    1  UNL1        0.0000
   2473 C         -10.8354   17.5311   32.2000 C.ar    1  UNL1        0.0000
   2474 C          -0.4125   10.4431   34.1733 C.ar    1  UNL1        0.0000
   2475 C          -7.4721   25.3808   31.3334 C.3     1  UNL1        0.0000
   2476 C          -6.1229   24.4371   33.1332 C.2     1  UNL1        0.0000
   2477 C          -1.7897   11.3355   32.3363 C.ar    1  UNL1        0.0000
   2478 C           4.2789   17.6013   31.4304 C.ar    1  UNL1        0.0000
   2479 C         -12.1520   18.3435   34.0868 C.ar    1  UNL1        0.0000
   2480 C           2.4609   15.8189   26.2239 C.ar    1  UNL1        0.0000
   2481 C          -4.0088   27.6105   26.2489 C.2     1  UNL1        0.0000
   2482 C           4.9454   21.5820   26.0979 C.ar    1  UNL1        0.0000
   2483 C          -8.4130   23.1244   26.0785 C.ar    1  UNL1        0.0000
   2484 C          -2.8048   19.6474   31.7837 C.3     1  UNL1        0.0000
   2485 C          -7.5608   12.5530   33.7019 C.3     1  UNL1        0.0000
   2486 C           2.3251   17.2737   26.2007 C.3     1  UNL1        0.0000
   2487 C          -4.1016   26.1769   26.2114 C.2     1  UNL1        0.0000
   2488 C           3.6475   20.9652   26.1448 C.3     1  UNL1        0.0000
   2489 C          -7.0107   23.5388   26.1030 C.3     1  UNL1        0.0000
   2490 C           2.5003   15.1498   27.4536 C.ar    1  UNL1        0.0000
   2491 C          -8.6465   21.2501   38.1066 C.3    41  UNL41       0.0000
   2492 C           5.6007   21.8568   27.3319 C.ar    1  UNL1        0.0000
   2493 C         -13.6807   15.8286   37.9451 C.2    12  UNL12       0.0000
   2494 C           1.0050   14.7843   37.9595 C.2    22  UNL22       0.0000
   2495 C          -9.1102   22.8940   27.2910 C.ar    1  UNL1        0.0000
   2496 C          -2.1572    8.0124   38.1087 C.2    17  UNL17       0.0000
   2497 C          -3.9950   28.3617   27.4782 C.3     1  UNL1        0.0000
   2498 N          -3.9400   27.7628   28.7164 N.3     1  UNL1        0.0000
   2499 N           0.4260   14.6014   36.7206 N.pl3  22  UNL22       0.0000
   2500 N           1.8155   19.0215   33.8438 N.pl3   1  UNL1        0.0000
   2501 N          -0.0815   10.2848   35.4907 N.pl3   1  UNL1        0.0000
   2502 O           1.0728   19.3097   31.2767 O.3     1  UNL1        0.0000
   2503 O          -9.3509   16.0752   34.1668 O.3     1  UNL1        0.0000
   2504 O          -2.1007   11.9422   35.8886 O.3     1  UNL1        0.0000
   2505 O          -5.5535   24.3908   29.5789 O.3     1  UNL1        0.0000
   2506 O          -4.7171   23.0039   31.1650 O.3     1  UNL1        0.0000
   2507 O          -3.6526   12.1862   34.2619 O.3     1  UNL1        0.0000
   2508 O           2.6610   18.9854   29.6991 O.3     1  UNL1        0.0000
   2509 O         -10.1619   17.4623   35.7648 O.3     1  UNL1        0.0000
   2510 O          -0.0115   18.7305   28.7001 O.3     1  UNL1        0.0000
   2511 O          -7.6577   16.5891   36.2652 O.3     1  UNL1        0.0000
   2512 O           0.9273   21.0178   29.1501 O.3     1  UNL1        0.0000
   2513 O          -9.4099   14.8644   36.7579 O.3     1  UNL1        0.0000
   2514 O          -4.8034   11.6565   36.8526 O.3     1  UNL1        0.0000
   2515 O          -3.0349   23.5519   29.0807 O.3     1  UNL1        0.0000
   2516 O          -3.8494   13.9180   36.3884 O.3     1  UNL1        0.0000
   2517 O          -4.7412   21.7948   28.5632 O.3     1  UNL1        0.0000
   2518 O          -2.4321   10.8022   38.1546 O.3     1  UNL1        0.0000
   2519 O          -4.1847   25.4755   27.3066 O.2     1  UNL1        0.0000
   2520 O          -1.6300   13.5904   38.1495 O.3     1  UNL1        0.0000
   2521 O          -6.4206   23.6398   27.2466 O.3     1  UNL1        0.0000
   2522 O           3.1082   20.6650   27.2928 O.3     1  UNL1        0.0000
   2523 O         -11.0461   16.7046   38.0806 O.3     1  UNL1        0.0000
   2524 O           2.3126   17.9107   27.3222 O.3     1  UNL1        0.0000
   2525 O          -8.7779   18.4869   38.1619 O.3     1  UNL1        0.0000
   2526 O          -1.8197   21.1220   29.2012 O.3     1  UNL1        0.0000
   2527 O          -6.5216   14.1181   36.1822 O.3     1  UNL1        0.0000
   2528 O           0.6344   19.8968   26.2684 O.3     1  UNL1        0.0000
   2529 O          -3.9332   22.9989   26.1016 O.3     1  UNL1        0.0000
   2530 H          -2.4975   16.1426   34.8494 H       1  UNL1        0.0000
   2531 H          -6.4217   10.4416   32.4560 H       1  UNL1        0.0000
   2532 H          -1.7015   25.1589   31.1760 H      23  UNL23       0.0000
   2533 H          -1.5499   17.6326   33.0633 H       1  UNL1        0.0000
   2534 H          -6.2460   18.2465   34.6145 H       1  UNL1        0.0000
   2535 H         -10.0878   12.6689   32.7770 H       1  UNL1        0.0000
   2536 H          -4.8355   16.4580   35.5962 H       1  UNL1        0.0000
   2537 H          -5.2928   19.7441   32.8315 H       1  UNL1        0.0000
   2538 H          -0.3798   23.3080   30.1743 H      23  UNL23       0.0000
   2539 H         -14.0169   23.5185   30.7226 H      13  UNL13       0.0000
   2540 C          -3.3659   18.7760   32.8467 C.ar    1  UNL1        0.0000
   2541 C          -4.4223   17.1171   34.8339 C.ar    1  UNL1        0.0000
   2542 C           0.0873   23.9833   30.8903 C.2    23  UNL23       0.0000
   2543 C          -8.1913   11.6474   32.7046 C.ar    1  UNL1        0.0000
   2544 C          -4.6922   18.9569   33.2829 C.ar    1  UNL1        0.0000
   2545 C          -3.1002   16.9347   34.4075 C.ar    1  UNL1        0.0000
   2546 C          -0.6534   25.0346   31.4480 C.2    23  UNL23       0.0000
   2547 C          -7.4566   10.5833   32.1501 C.ar    1  UNL1        0.0000
   2548 C           1.4252   23.7860   31.2540 C.3    23  UNL23       0.0000
   2549 C          -9.5340   11.8457   32.3301 C.ar    1  UNL1        0.0000
   2550 C          -2.5714   17.7616   33.4153 C.ar    1  UNL1        0.0000
   2551 C          -5.2177   18.1266   34.2757 C.ar    1  UNL1        0.0000
   2552 O          -1.5846   19.4693   31.4295 O.3     1  UNL1        0.0000
   2553 O          -8.2279   13.5781   34.0890 O.3     1  UNL1        0.0000
   2554 O          -6.3892   12.2724   34.1338 O.3     1  UNL1        0.0000
   2555 O          -3.5561   20.5489   31.2657 O.3     1  UNL1        0.0000
   2556 N          -0.4298   27.2178   53.9415 N.pl3  42  UNL42       0.0000
   2557 N          -0.5495   25.4595   52.6589 N.pl3  42  UNL42       0.0000
   2558 C          -0.0629   27.6180   52.6661 C.2    42  UNL42       0.0000
   2559 C          -0.1335   26.5130   51.8625 C.2    42  UNL42       0.0000
   2560 C           0.6545   23.3114   52.2882 C.3    42  UNL42       0.0000
   2561 C          -0.4708   28.0872   55.1223 C.3    42  UNL42       0.0000
   2562 C          -0.7294   25.9059   53.9153 C.3    42  UNL42       0.0000
   2563 C          -0.6780   24.0534   52.2264 C.3    42  UNL42       0.0000
   2564 H           0.1997   28.6437   52.4454 H      42  UNL42       0.0000
   2565 H           0.0610   26.3827   50.8053 H      42  UNL42       0.0000
   2566 H           1.4043   23.7680   51.6299 H      42  UNL42       0.0000
   2567 H           0.5239   28.5173   55.2847 H      42  UNL42       0.0000
   2568 H           1.0534   23.2827   53.3111 H      42  UNL42       0.0000
   2569 H          -1.2118   28.8778   54.9603 H      42  UNL42       0.0000
   2570 H           0.5159   22.2715   51.9608 H      42  UNL42       0.0000
   2571 H          -1.1000   24.0779   51.2126 H      42  UNL42       0.0000
   2572 H          -0.7557   27.4885   55.9923 H      42  UNL42       0.0000
   2573 H          -1.0865   25.3090   54.7474 H      42  UNL42       0.0000
   2574 H          -1.4378   23.5984   52.8711 H      42  UNL42       0.0000
   2575 TI         29.1434    1.1152   11.4255 Ti      1  UNL1        0.0000
   2576 TI         39.9739    3.9964    2.0607 Ti      1  UNL1        0.0000
   2577 TI         33.2401   -2.8210    9.6056 Ti      1  UNL1        0.0000
   2578 TI         34.7513    6.3412    3.8325 Ti      1  UNL1        0.0000
   2579 TI         33.7527    8.0195    1.9281 Ti      1  UNL1        0.0000
   2580 TI         35.1283   -3.0753   11.5589 Ti      1  UNL1        0.0000
   2581 TI         30.0926   -0.6207    9.5341 Ti      1  UNL1        0.0000
   2582 TI         37.9861    4.2990    3.9082 Ti      1  UNL1        0.0000
   2583 H          29.6453    5.0123   11.2061 H       1  UNL1        0.0000
   2584 H          40.7827    0.0904    2.3814 H       1  UNL1        0.0000
   2585 H          25.1835    0.3586   11.0431 H       1  UNL1        0.0000
   2586 H          43.3561    6.0007    2.2614 H       1  UNL1        0.0000
   2587 H          36.1039   -7.1098   11.1730 H       1  UNL1        0.0000
   2588 H          29.6942    7.4296    2.2502 H       1  UNL1        0.0000
   2589 H          34.2472    6.3827    0.0551 H       1  UNL1        0.0000
   2590 H          38.0984    3.7538    0.3608 H       1  UNL1        0.0000
   2591 H          35.6382   -3.7424    6.0478 H       1  UNL1        0.0000
   2592 H          33.0279    8.1782    7.4515 H       1  UNL1        0.0000
   2593 H          26.0200    2.7680    9.1781 H       1  UNL1        0.0000
   2594 H          42.7287    1.9121    4.3667 H       1  UNL1        0.0000
   2595 H          28.3211    1.3205    5.8443 H       1  UNL1        0.0000
   2596 H          30.6527    9.8473    4.2814 H       1  UNL1        0.0000
   2597 H          34.1450   11.1223    2.7836 H       1  UNL1        0.0000
   2598 H          40.6249   -1.9284    3.5839 H      54  UNL54       0.0000
   2599 H          36.8439    6.0213    2.4939 H       1  UNL1        0.0000
   2600 H          32.1594   -0.9726   10.8992 H       1  UNL1        0.0000
   2601 H          39.3631   -1.1405    9.9486 H       1  UNL1        0.0000
   2602 H          37.8819   -1.6095   10.6959 H       1  UNL1        0.0000
   2603 H          39.9372    3.2932    8.8497 H       1  UNL1        0.0000
   2604 H          39.3675    3.6518    7.2311 H       1  UNL1        0.0000
   2605 H          38.8743   -6.0953    9.7586 H       1  UNL1        0.0000
   2606 H          37.5951   -4.9947   10.2159 H       1  UNL1        0.0000
   2607 C          40.5519    3.2552    4.9243 C.2     1  UNL1        0.0000
   2608 C          28.1829    1.3766    8.5785 C.3     1  UNL1        0.0000
   2609 C          35.8206   -3.8317    8.6808 C.3     1  UNL1        0.0000
   2610 C          32.8152    8.3117    4.7919 C.3     1  UNL1        0.0000
   2611 C          41.4480    2.6509    5.9194 C.2     1  UNL1        0.0000
   2612 C          27.2510    2.0016    7.6015 C.ar    1  UNL1        0.0000
   2613 C          36.7608   -4.4460    7.7336 C.2     1  UNL1        0.0000
   2614 C          31.9254    8.9585    5.7917 C.ar    1  UNL1        0.0000
   2615 C          41.1992    2.7258    7.3259 C.3     1  UNL1        0.0000
   2616 C          27.4674    1.8817    6.2134 C.ar    1  UNL1        0.0000
   2617 C          37.8903   -5.2063    8.1867 C.2     1  UNL1        0.0000
   2618 C          30.8307    9.7314    5.3467 C.ar    1  UNL1        0.0000
   2619 C          32.1799    8.7877    7.1466 C.ar    1  UNL1        0.0000
   2620 C          36.5131   -4.3139    6.3497 C.3     1  UNL1        0.0000
   2621 C          42.5816    1.9519    5.4437 C.3     1  UNL1        0.0000
   2622 C          26.1508    2.6940    8.1001 C.ar    1  UNL1        0.0000
   2623 C          40.7637    0.1695    0.2373 C.2     1  UNL1        0.0000
   2624 C          34.2940   11.9611    0.2623 C.2     1  UNL1        0.0000
   2625 C          43.2482    5.9326    0.1113 C.2     1  UNL1        0.0000
   2626 C          29.8898    7.4750    0.0919 C.2     1  UNL1        0.0000
   2627 C          35.4980    3.9980    5.7971 C.3     1  UNL1        0.0000
   2628 C          30.7419   -3.0964    7.7153 C.2     1  UNL1        0.0000
   2629 C          40.6279    1.6243    0.2141 C.2     1  UNL1        0.0000
   2630 C          34.2012   10.5275    0.2248 C.2     1  UNL1        0.0000
   2631 C          41.9503    5.3157    0.1582 C.2     1  UNL1        0.0000
   2632 C          31.2921    7.8894    0.1164 C.2     1  UNL1        0.0000
   2633 C          40.8031   -0.4997    1.4670 C.3     1  UNL1        0.0000
   2634 C          29.6562    5.6007   12.1200 C.ar    1  UNL1        0.0000
   2635 C          43.9035    6.2074    1.3453 C.3     1  UNL1        0.0000
   2636 C          24.6220    0.1792   11.9584 C.ar    1  UNL1        0.0000
   2637 C          39.3078   -0.8651   11.9729 C.3     1  UNL1        0.0000
   2638 C          29.1926    7.2446    1.3044 C.2     1  UNL1        0.0000
   2639 C          36.1456   -7.6370   12.1221 C.3     1  UNL1        0.0000
   2640 C          34.3078   12.7122    1.4916 C.2     1  UNL1        0.0000
   2641 N          34.3628   12.1134    2.7298 N.pl3   1  UNL1        0.0000
   2642 N          38.7288   -1.0480   10.7340 N.3     1  UNL1        0.0000
   2643 N          40.1183    3.3720    7.8572 N.3     1  UNL1        0.0000
   2644 N          38.2213   -5.3646    9.5041 N.pl3   1  UNL1        0.0000
   2645 O          39.3756    3.6603    5.2900 O.2     1  UNL1        0.0000
   2646 O          28.9519    0.4258    8.1802 O.3     1  UNL1        0.0000
   2647 O          36.2021   -3.7072    9.9019 O.3     1  UNL1        0.0000
   2648 O          32.7493    8.7413    3.5923 O.3     1  UNL1        0.0000
   2649 O          33.5857    7.3545    5.1783 O.3     1  UNL1        0.0000
   2650 O          34.6502   -3.4632    8.2753 O.3     1  UNL1        0.0000
   2651 O          40.9638    3.3360    3.7125 O.2     1  UNL1        0.0000
   2652 O          28.1409    1.8129    9.7782 O.3     1  UNL1        0.0000
   2653 O          38.2913    3.0811    2.7135 O.3     1  UNL1        0.0000
   2654 O          30.6451    0.9397   10.2786 O.3     1  UNL1        0.0000
   2655 O          39.2301    5.3684    3.1635 O.3     1  UNL1        0.0000
   2656 O          28.8929   -0.7850   10.7712 O.3     1  UNL1        0.0000
   2657 O          33.4994   -3.9929   10.8660 O.3     1  UNL1        0.0000
   2658 O          35.2679    7.9025    3.0940 O.3     1  UNL1        0.0000
   2659 O          34.4534   -1.7314   10.4018 O.3     1  UNL1        0.0000
   2660 O          33.5616    6.1454    2.5766 O.3     1  UNL1        0.0000
   2661 O          35.8707   -4.8472   12.1680 O.2     1  UNL1        0.0000
   2662 O          34.1181    9.8261    1.3200 O.2     1  UNL1        0.0000
   2663 O          36.6728   -2.0590   12.1629 O.2     1  UNL1        0.0000
   2664 O          31.8822    7.9904    1.2600 O.2     1  UNL1        0.0000
   2665 O          41.4110    5.0156    1.3062 O.2     1  UNL1        0.0000
   2666 O          27.2567    1.0552   12.0940 O.3     1  UNL1        0.0000
   2667 O          40.6154    2.2612    1.3356 O.2     1  UNL1        0.0000
   2668 O          29.5249    2.8375   12.1752 O.3     1  UNL1        0.0000
   2669 O          36.4831    5.4725    3.2146 O.3     1  UNL1        0.0000
   2670 O          31.7812   -1.5313   10.1956 O.3     1  UNL1        0.0000
   2671 O          38.9372    4.2474    0.2818 O.3     1  UNL1        0.0000
   2672 O          34.3696    7.3495    0.1150 O.3     1  UNL1        0.0000
   2673 H          35.8053    0.4932    8.8628 H       1  UNL1        0.0000
   2674 H          31.8811   -5.2078    6.4694 H       1  UNL1        0.0000
   2675 H          36.6013    9.5095    5.1894 H      24  UNL24       0.0000
   2676 H          36.7528    1.9832    7.0766 H       1  UNL1        0.0000
   2677 H          32.0568    2.5971    8.6279 H       1  UNL1        0.0000
   2678 H          28.2150   -2.9805    6.7904 H       1  UNL1        0.0000
   2679 H          33.4673    0.8086    9.6096 H       1  UNL1        0.0000
   2680 H          33.0100    4.0947    6.8449 H       1  UNL1        0.0000
   2681 H          37.9230    7.6586    4.1877 H      24  UNL24       0.0000
   2682 H          24.2859    7.8691    4.7360 H       1  UNL1        0.0000
   2683 C          34.9369    3.1266    6.8601 C.ar    1  UNL1        0.0000
   2684 C          33.8805    1.4677    8.8473 C.ar    1  UNL1        0.0000
   2685 C          38.3901    8.3339    4.9037 C.2    24  UNL24       0.0000
   2686 C          30.1115   -4.0021    6.7180 C.2     1  UNL1        0.0000
   2687 C          33.6106    3.3075    7.2963 C.ar    1  UNL1        0.0000
   2688 C          35.2026    1.2853    8.4209 C.ar    1  UNL1        0.0000
   2689 C          37.6494    9.3852    5.4614 C.2    24  UNL24       0.0000
   2690 C          30.8462   -5.0661    6.1635 C.3     1  UNL1        0.0000
   2691 C          39.7280    8.1365    5.2674 C.3    24  UNL24       0.0000
   2692 C          28.7688   -3.8037    6.3435 C.3     1  UNL1        0.0000
   2693 C          35.7314    2.1122    7.4287 C.ar    1  UNL1        0.0000
   2694 C          33.0851    2.4772    8.2891 C.ar    1  UNL1        0.0000
   2695 O          36.7182    3.8199    5.4429 O.3     1  UNL1        0.0000
   2696 O          30.0749   -2.0713    8.1024 O.2     1  UNL1        0.0000
   2697 O          31.9135   -3.3770    8.1472 O.2     1  UNL1        0.0000
   2698 O          34.7467    4.8995    5.2791 O.3     1  UNL1        0.0000
   2699 N          37.8730   11.5684   27.9549 N.pl3  44  UNL44       0.0000
   2700 N          37.7533    9.8101   26.6723 N.pl3  44  UNL44       0.0000
   2701 C          38.2399   11.9686   26.6794 C.2    44  UNL44       0.0000
   2702 C          38.1693   10.8636   25.8758 C.2    44  UNL44       0.0000
   2703 C          38.9573    7.6620   26.3016 C.3    44  UNL44       0.0000
   2704 C          37.8319   12.4378   29.1357 C.3    44  UNL44       0.0000
   2705 C          37.5734   10.2565   27.9287 C.3    44  UNL44       0.0000
   2706 C          37.6248    8.4040   26.2398 C.3    44  UNL44       0.0000
   2707 H          38.5025   12.9942   26.4588 H      44  UNL44       0.0000
   2708 H          38.3638   10.7333   24.8187 H      44  UNL44       0.0000
   2709 H          39.7071    8.1186   25.6433 H      44  UNL44       0.0000
   2710 H          38.8267   12.8679   29.2981 H      44  UNL44       0.0000
   2711 H          39.3562    7.6333   27.3245 H      44  UNL44       0.0000
   2712 H          37.0910   13.2284   28.9737 H      44  UNL44       0.0000
   2713 H          38.8186    6.6221   25.9742 H      44  UNL44       0.0000
   2714 H          37.2027    8.4285   25.2260 H      44  UNL44       0.0000
   2715 H          37.5471   11.8391   30.0057 H      44  UNL44       0.0000
   2716 H          37.2163    9.6596   28.7608 H      44  UNL44       0.0000
   2717 H          36.8650    7.9490   26.8845 H      44  UNL44       0.0000
   2718 TI         24.5088   -5.9512   24.5201 Ti      1  UNL1        0.0000
   2719 TI         35.3393   -3.0700   15.1553 Ti      1  UNL1        0.0000
   2720 TI         28.6055   -9.8874   22.7002 Ti      1  UNL1        0.0000
   2721 TI         30.1167   -0.7253   16.9271 Ti      1  UNL1        0.0000
   2722 TI         29.1181    0.9530   15.0227 Ti      1  UNL1        0.0000
   2723 TI         30.4937  -10.1417   24.6535 Ti      1  UNL1        0.0000
   2724 TI         25.4580   -7.6871   22.6287 Ti      1  UNL1        0.0000
   2725 TI         33.3514   -2.7674   17.0028 Ti      1  UNL1        0.0000
   2726 H          25.0107   -2.0541   24.3007 H       1  UNL1        0.0000
   2727 H          36.1480   -6.9760   15.4760 H       1  UNL1        0.0000
   2728 H          20.5489   -6.7078   24.1377 H       1  UNL1        0.0000
   2729 H          38.7214   -1.0657   15.3560 H       1  UNL1        0.0000
   2730 H          31.4693  -14.1763   24.2676 H       1  UNL1        0.0000
   2731 H          25.0596    0.3631   15.3448 H       1  UNL1        0.0000
   2732 H          29.6126   -0.6838   13.1497 H       1  UNL1        0.0000
   2733 H          33.4637   -3.3127   13.4554 H       1  UNL1        0.0000
   2734 H          31.0036  -10.8089   19.1424 H       1  UNL1        0.0000
   2735 H          28.3932    1.1118   20.5461 H       1  UNL1        0.0000
   2736 H          21.3854   -4.2985   22.2728 H       1  UNL1        0.0000
   2737 H          38.0940   -5.1543   17.4613 H       1  UNL1        0.0000
   2738 H          23.6865   -5.7459   18.9389 H       1  UNL1        0.0000
   2739 H          26.0180    2.7809   17.3760 H       1  UNL1        0.0000
   2740 H          29.5103    4.0559   15.8782 H       1  UNL1        0.0000
   2741 H          35.9902   -8.9949   16.6785 H      54  UNL54       0.0000
   2742 H          32.2093   -1.0451   15.5885 H       1  UNL1        0.0000
   2743 H          27.5248   -8.0390   23.9938 H       1  UNL1        0.0000
   2744 H          34.7284   -8.2069   23.0432 H       1  UNL1        0.0000
   2745 H          33.2473   -8.6760   23.7905 H       1  UNL1        0.0000
   2746 H          35.3025   -3.7733   21.9443 H       1  UNL1        0.0000
   2747 H          34.7328   -3.4147   20.3257 H       1  UNL1        0.0000
   2748 H          34.2396  -13.1617   22.8532 H       1  UNL1        0.0000
   2749 H          32.9605  -12.0611   23.3106 H       1  UNL1        0.0000
   2750 C          35.9173   -3.8112   18.0189 C.2     1  UNL1        0.0000
   2751 C          23.5482   -5.6898   21.6731 C.3     1  UNL1        0.0000
   2752 C          31.1860  -10.8981   21.7754 C.3     1  UNL1        0.0000
   2753 C          28.1806    1.2452   17.8865 C.3     1  UNL1        0.0000
   2754 C          36.8133   -4.4155   19.0141 C.2     1  UNL1        0.0000
   2755 C          22.6163   -5.0648   20.6961 C.ar    1  UNL1        0.0000
   2756 C          32.1262  -11.5125   20.8283 C.2     1  UNL1        0.0000
   2757 C          27.2907    1.8920   18.8863 C.ar    1  UNL1        0.0000
   2758 C          36.5646   -4.3406   20.4205 C.3     1  UNL1        0.0000
   2759 C          22.8327   -5.1848   19.3080 C.ar    1  UNL1        0.0000
   2760 C          33.2556  -12.2728   21.2813 C.2     1  UNL1        0.0000
   2761 C          26.1960    2.6650   18.4414 C.ar    1  UNL1        0.0000
   2762 C          27.5452    1.7213   20.2412 C.ar    1  UNL1        0.0000
   2763 C          31.8785  -11.3803   19.4443 C.3     1  UNL1        0.0000
   2764 C          37.9470   -5.1145   18.5383 C.3     1  UNL1        0.0000
   2765 C          21.5162   -4.3724   21.1947 C.ar    1  UNL1        0.0000
   2766 C          36.1291   -6.8970   13.3319 C.2     1  UNL1        0.0000
   2767 C          29.6593    4.8946   13.3569 C.ar    1  UNL1        0.0000
   2768 C          38.6135   -1.1339   13.2059 C.2     1  UNL1        0.0000
   2769 C          25.2552    0.4086   13.1865 C.ar    1  UNL1        0.0000
   2770 C          30.8634   -3.0684   18.8917 C.3     1  UNL1        0.0000
   2771 C          26.1073  -10.1628   20.8099 C.2     1  UNL1        0.0000
   2772 C          35.9932   -5.4421   13.3087 C.2     1  UNL1        0.0000
   2773 C          29.5666    3.4611   13.3194 C.3     1  UNL1        0.0000
   2774 C          37.3157   -1.7507   13.2528 C.2     1  UNL1        0.0000
   2775 C          26.6575    0.8229   13.2110 C.3     1  UNL1        0.0000
   2776 C          36.1684   -7.5661   14.5616 C.3     1  UNL1        0.0000
   2777 C          25.0216   -1.4657   25.2146 C.ar    1  UNL1        0.0000
   2778 C          39.2688   -0.8591   14.4399 C.3     1  UNL1        0.0000
   2779 C          19.9874   -6.8872   25.0530 C.ar    1  UNL1        0.0000
   2780 C          34.6732   -7.9316   25.0675 C.3     1  UNL1        0.0000
   2781 C          24.5580    0.1782   14.3990 C.ar    1  UNL1        0.0000
   2782 C          31.5109  -14.7034   25.2167 C.3     1  UNL1        0.0000
   2783 C          29.6731    5.6458   14.5862 C.ar    1  UNL1        0.0000
   2784 N          29.7282    5.0470   15.8244 N.pl3   1  UNL1        0.0000
   2785 N          34.0941   -8.1144   23.8286 N.3     1  UNL1        0.0000
   2786 N          35.4837   -3.6944   20.9518 N.3     1  UNL1        0.0000
   2787 N          33.5866  -12.4310   22.5987 N.pl3   1  UNL1        0.0000
   2788 O          34.7410   -3.4061   18.3847 O.2     1  UNL1        0.0000
   2789 O          24.3172   -6.6407   21.2748 O.3     1  UNL1        0.0000
   2790 O          31.5674  -10.7736   22.9966 O.3     1  UNL1        0.0000
   2791 O          28.1147    1.6749   16.6869 O.3     1  UNL1        0.0000
   2792 O          28.9510    0.2880   18.2729 O.3     1  UNL1        0.0000
   2793 O          30.0156  -10.5297   21.3699 O.3     1  UNL1        0.0000
   2794 O          36.3292   -3.7305   16.8071 O.2     1  UNL1        0.0000
   2795 O          23.5062   -5.2536   22.8728 O.3     1  UNL1        0.0000
   2796 O          33.6567   -3.9853   15.8081 O.3     1  UNL1        0.0000
   2797 O          26.0105   -6.1267   23.3732 O.3     1  UNL1        0.0000
   2798 O          34.5955   -1.6981   16.2581 O.3     1  UNL1        0.0000
   2799 O          24.2583   -7.8514   23.8659 O.3     1  UNL1        0.0000
   2800 O          28.8648  -11.0594   23.9606 O.3     1  UNL1        0.0000
   2801 O          30.6332    0.8360   16.1887 O.3     1  UNL1        0.0000
   2802 O          29.8187   -8.7979   23.4964 O.3     1  UNL1        0.0000
   2803 O          28.9270   -0.9211   15.6712 O.3     1  UNL1        0.0000
   2804 O          31.2360  -11.9136   25.2626 O.2     1  UNL1        0.0000
   2805 O          29.4835    2.7597   14.4146 O.3     1  UNL1        0.0000
   2806 O          32.0382   -9.1254   25.2575 O.2     1  UNL1        0.0000
   2807 O          27.2475    0.9239   14.3546 O.3     1  UNL1        0.0000
   2808 O          36.7763   -2.0509   14.4008 O.2     1  UNL1        0.0000
   2809 O          22.6220   -6.0113   25.1886 O.3     1  UNL1        0.0000
   2810 O          35.9808   -4.8052   14.4302 O.2     1  UNL1        0.0000
   2811 O          24.8902   -4.2289   25.2699 O.3     1  UNL1        0.0000
   2812 O          31.8485   -1.5939   16.3092 O.3     1  UNL1        0.0000
   2813 O          27.1465   -8.5977   23.2902 O.3     1  UNL1        0.0000
   2814 O          34.3026   -2.8190   13.3764 O.3     1  UNL1        0.0000
   2815 O          29.7349    0.2830   13.2096 O.3     1  UNL1        0.0000
   2816 H          31.1706   -6.5732   21.9574 H       1  UNL1        0.0000
   2817 H          27.2464  -12.2743   19.5640 H       1  UNL1        0.0000
   2818 H          31.9667    2.4431   18.2840 H      25  UNL25       0.0000
   2819 H          32.1182   -5.0833   20.1712 H       1  UNL1        0.0000
   2820 H          27.4221   -4.4694   21.7225 H       1  UNL1        0.0000
   2821 H          23.5803  -10.0470   19.8850 H       1  UNL1        0.0000
   2822 H          28.8326   -6.2578   22.7042 H       1  UNL1        0.0000
   2823 H          28.3754   -2.9718   19.9395 H       1  UNL1        0.0000
   2824 H          33.2884    0.5921   17.2823 H      25  UNL25       0.0000
   2825 H          19.6513    0.8026   17.8306 H       1  UNL1        0.0000
   2826 C          30.3023   -3.9399   19.9547 C.ar    1  UNL1        0.0000
   2827 C          29.2459   -5.5988   21.9419 C.ar    1  UNL1        0.0000
   2828 C          33.7554    1.2675   17.9983 C.2    25  UNL25       0.0000
   2829 C          25.4769  -11.0685   19.8126 C.2     1  UNL1        0.0000
   2830 C          28.9760   -3.7590   20.3909 C.ar    1  UNL1        0.0000
   2831 C          30.5680   -5.7811   21.5155 C.ar    1  UNL1        0.0000
   2832 C          33.0148    2.3188   18.5560 C.2    25  UNL25       0.0000
   2833 C          26.2116  -12.1325   19.2581 C.3     1  UNL1        0.0000
   2834 C          35.0933    1.0701   18.3620 C.3    25  UNL25       0.0000
   2835 C          24.1342  -10.8702   19.4381 C.3     1  UNL1        0.0000
   2836 C          31.0968   -4.9542   20.5233 C.ar    1  UNL1        0.0000
   2837 C          28.4504   -4.5893   21.3837 C.ar    1  UNL1        0.0000
   2838 O          32.0835   -3.2465   18.5375 O.3     1  UNL1        0.0000
   2839 O          25.4402   -9.1377   21.1970 O.2     1  UNL1        0.0000
   2840 O          27.2789  -10.4435   21.2418 O.2     1  UNL1        0.0000
   2841 O          30.1121   -2.1670   18.3737 O.3     1  UNL1        0.0000
   2842 N          33.2384    4.5020   41.0495 N.pl3  46  UNL46       0.0000
   2843 N          33.1186    2.7437   39.7669 N.pl3  46  UNL46       0.0000
   2844 C          33.6053    4.9022   39.7741 C.2    46  UNL46       0.0000
   2845 C          33.5346    3.7972   38.9705 C.2    46  UNL46       0.0000
   2846 C          34.3226    0.5956   39.3962 C.3    46  UNL46       0.0000
   2847 C          33.1973    5.3713   42.2303 C.3    46  UNL46       0.0000
   2848 C          32.9388    3.1901   41.0233 C.3    46  UNL46       0.0000
   2849 C          32.9902    1.3375   39.3344 C.3    46  UNL46       0.0000
   2850 H          33.8679    5.9278   39.5534 H      46  UNL46       0.0000
   2851 H          33.7291    3.6669   37.9133 H      46  UNL46       0.0000
   2852 H          35.0725    1.0522   38.7379 H      46  UNL46       0.0000
   2853 H          34.1920    5.8015   42.3927 H      46  UNL46       0.0000
   2854 H          34.7216    0.5669   40.4191 H      46  UNL46       0.0000
   2855 H          32.4563    6.1620   42.0683 H      46  UNL46       0.0000
   2856 H          34.1840   -0.4443   39.0688 H      46  UNL46       0.0000
   2857 H          32.5681    1.3620   38.3206 H      46  UNL46       0.0000
   2858 H          32.9125    4.7727   43.1003 H      46  UNL46       0.0000
   2859 H          32.5817    2.5932   41.8554 H      46  UNL46       0.0000
   2860 H          32.2304    0.8825   39.9791 H      46  UNL46       0.0000
   2861 TI         19.8741  -13.0176   37.6148 Ti      1  UNL1        0.0000
   2862 TI         30.7046  -10.1364   28.2499 Ti      1  UNL1        0.0000
   2863 TI         23.9708  -16.9538   35.7948 Ti      1  UNL1        0.0000
   2864 TI         25.4820   -7.7917   30.0217 Ti      1  UNL1        0.0000
   2865 TI         24.4834   -6.1134   28.1174 Ti      1  UNL1        0.0000
   2866 TI         25.8590  -17.2082   37.7481 Ti      1  UNL1        0.0000
   2867 TI         20.8233  -14.7535   35.7233 Ti      1  UNL1        0.0000
   2868 TI         28.7168   -9.8339   30.0974 Ti      1  UNL1        0.0000
   2869 H          20.3760   -9.1206   37.3953 H      26  UNL26       0.0000
   2870 H          31.5134  -14.0425   28.5706 H       1  UNL1        0.0000
   2871 H          15.9142  -13.7743   37.2323 H      15  UNL15       0.0000
   2872 H          34.0868   -8.1321   28.4506 H       1  UNL1        0.0000
   2873 H          26.8346  -21.2427   37.3622 H      28  UNL28       0.0000
   2874 H          20.4249   -6.7033   28.4394 H       1  UNL1        0.0000
   2875 H          24.9779   -7.7502   26.2443 H       1  UNL1        0.0000
   2876 H          28.8291  -10.3791   26.5500 H       1  UNL1        0.0000
   2877 H          26.3689  -17.8753   32.2370 H       1  UNL1        0.0000
   2878 H          23.7586   -5.9547   33.6407 H       1  UNL1        0.0000
   2879 H          16.7507  -11.3649   35.3674 H       1  UNL1        0.0000
   2880 H          33.4594  -12.2208   30.5559 H       1  UNL1        0.0000
   2881 H          19.0518  -12.8123   32.0335 H       1  UNL1        0.0000
   2882 H          21.3834   -4.2855   30.4706 H       1  UNL1        0.0000
   2883 H          24.8757   -3.0106   28.9728 H       1  UNL1        0.0000
   2884 H          31.3556  -16.0613   29.7731 H      54  UNL54       0.0000
   2885 H          27.5746   -8.1116   28.6831 H       1  UNL1        0.0000
   2886 H          22.8901  -15.1054   37.0884 H       1  UNL1        0.0000
   2887 H          30.0938  -15.2733   36.1378 H      27  UNL27       0.0000
   2888 H          28.6127  -15.7424   36.8851 H      27  UNL27       0.0000
   2889 H          30.6679  -10.8397   35.0389 H       1  UNL1        0.0000
   2890 H          30.0982  -10.4811   33.4204 H       1  UNL1        0.0000
   2891 H          29.6050  -20.2282   35.9478 H       1  UNL1        0.0000
   2892 H          28.3258  -19.1276   36.4052 H       1  UNL1        0.0000
   2893 C          31.2827  -10.8777   31.1135 C.2     1  UNL1        0.0000
   2894 C          18.9136  -12.7563   34.7677 C.3     1  UNL1        0.0000
   2895 C          26.5513  -17.9645   34.8701 C.3     1  UNL1        0.0000
   2896 C          23.5459   -5.8212   30.9811 C.3     1  UNL1        0.0000
   2897 C          32.1787  -11.4820   32.1087 C.2     1  UNL1        0.0000
   2898 C          17.9817  -12.1312   33.7907 C.ar    1  UNL1        0.0000
   2899 C          27.4915  -18.5789   33.9229 C.2     1  UNL1        0.0000
   2900 C          22.6561   -5.1744   31.9809 C.ar    1  UNL1        0.0000
   2901 C          31.9299  -11.4071   33.5151 C.3     1  UNL1        0.0000
   2902 C          18.1981  -12.2512   32.4027 C.ar    1  UNL1        0.0000
   2903 C          28.6210  -19.3392   34.3759 C.2     1  UNL1        0.0000
   2904 C          21.5614   -4.4014   31.5360 C.ar    1  UNL1        0.0000
   2905 C          22.9106   -5.3452   33.3358 C.ar    1  UNL1        0.0000
   2906 C          27.2438  -18.4468   32.5389 C.3     1  UNL1        0.0000
   2907 C          33.3124  -12.1810   31.6330 C.3     1  UNL1        0.0000
   2908 C          16.8815  -11.4388   34.2894 C.ar    1  UNL1        0.0000
   2909 C          31.4944  -13.9634   26.4265 C.2     1  UNL1        0.0000
   2910 C          25.0247   -2.1718   26.4515 C.ar    1  UNL1        0.0000
   2911 C          33.9789   -8.2003   26.3005 C.2     1  UNL1        0.0000
   2912 C          20.6205   -6.6579   26.2811 C.ar    1  UNL1        0.0000
   2913 C          26.2287  -10.1349   31.9863 C.3     1  UNL1        0.0000
   2914 C          21.4727  -17.2293   33.9045 C.2     1  UNL1        0.0000
   2915 C          31.3586  -12.5086   26.4033 C.2     1  UNL1        0.0000
   2916 C          24.9319   -3.6053   26.4141 C.3     1  UNL1        0.0000
   2917 C          32.6810   -8.8171   26.3474 C.2     1  UNL1        0.0000
   2918 C          22.0228   -6.2435   26.3056 C.3     1  UNL1        0.0000
   2919 C          31.5338  -14.6325   27.6562 C.3     1  UNL1        0.0000
   2920 C          20.3869   -8.5322   38.3092 C.2    26  UNL26       0.0000
   2921 C          34.6342   -7.9255   27.5345 C.3     1  UNL1        0.0000
   2922 C          15.3528  -13.9536   38.1477 C.2    15  UNL15       0.0000
   2923 C          30.0385  -14.9980   38.1622 C.3    27  UNL27       0.0000
   2924 C          19.9233   -6.8883   27.4936 C.ar    1  UNL1        0.0000
   2925 C          26.8763  -21.7699   38.3113 C.3    48  UNL48       0.0000
   2926 C          25.0385   -1.4206   27.6808 C.ar    1  UNL1        0.0000
   2927 N          25.0935   -2.0195   28.9190 N.pl3   1  UNL1        0.0000
   2928 N          29.4595  -15.1808   36.9232 N.3    27  UNL27       0.0000
   2929 N          30.8490  -10.7608   34.0464 N.3     1  UNL1        0.0000
   2930 N          28.9520  -19.4974   35.6933 N.pl3   1  UNL1        0.0000
   2931 O          30.1063  -10.4726   31.4793 O.2     1  UNL1        0.0000
   2932 O          19.6826  -13.7071   34.3694 O.3     1  UNL1        0.0000
   2933 O          26.9328  -17.8401   36.0912 O.3     1  UNL1        0.0000
   2934 O          23.4800   -5.3915   29.7815 O.3     1  UNL1        0.0000
   2935 O          24.3164   -6.7784   31.3676 O.3     1  UNL1        0.0000
   2936 O          25.3809  -17.5961   34.4645 O.3     1  UNL1        0.0000
   2937 O          31.6945  -10.7969   29.9017 O.2     1  UNL1        0.0000
   2938 O          18.8716  -12.3200   35.9674 O.3     1  UNL1        0.0000
   2939 O          29.0220  -11.0518   28.9027 O.3     1  UNL1        0.0000
   2940 O          21.3758  -13.1932   36.4678 O.3     1  UNL1        0.0000
   2941 O          29.9608   -8.7645   29.3527 O.3     1  UNL1        0.0000
   2942 O          19.6236  -14.9179   36.9605 O.3     1  UNL1        0.0000
   2943 O          24.2301  -18.1258   37.0552 O.3     1  UNL1        0.0000
   2944 O          25.9986   -6.2304   29.2833 O.3     1  UNL1        0.0000
   2945 O          25.1841  -15.8643   36.5910 O.3     1  UNL1        0.0000
   2946 O          24.2923   -7.9875   28.7658 O.3     1  UNL1        0.0000
   2947 O          26.6014  -18.9800   38.3572 O.3     1  UNL1        0.0000
   2948 O          24.8488   -4.3068   27.5092 O.3     1  UNL1        0.0000
   2949 O          27.4035  -16.1919   38.3521 O.3     1  UNL1        0.0000
   2950 O          22.6129   -6.1425   27.4492 O.3     1  UNL1        0.0000
   2951 O          32.1417   -9.1173   27.4954 O.2     1  UNL1        0.0000
   2952 O          17.9874  -13.0777   38.2832 O.3     1  UNL1        0.0000
   2953 O          31.3461  -11.8716   27.5248 O.2     1  UNL1        0.0000
   2954 O          20.2556  -11.2954   38.3645 O.3     1  UNL1        0.0000
   2955 O          27.2138   -8.6603   29.4038 O.3     1  UNL1        0.0000
   2956 O          22.5119  -15.6641   36.3848 O.3     1  UNL1        0.0000
   2957 O          29.6679   -9.8855   26.4710 O.3     1  UNL1        0.0000
   2958 O          25.1003   -6.7834   26.3042 O.3     1  UNL1        0.0000
   2959 H          26.5360  -13.6396   35.0520 H       1  UNL1        0.0000
   2960 H          22.6118  -19.3407   32.6586 H       1  UNL1        0.0000
   2961 H          27.3320   -4.6233   31.3786 H      29  UNL29       0.0000
   2962 H          27.4836  -12.1497   33.2659 H       1  UNL1        0.0000
   2963 H          22.7875  -11.5358   34.8171 H       1  UNL1        0.0000
   2964 H          18.9457  -17.1134   32.9796 H       1  UNL1        0.0000
   2965 H          24.1980  -13.3243   35.7988 H       1  UNL1        0.0000
   2966 H          23.7407  -10.0382   33.0341 H       1  UNL1        0.0000
   2967 H          28.6537   -6.4743   30.3769 H      29  UNL29       0.0000
   2968 H          15.0166   -6.2638   30.9252 H       1  UNL1        0.0000
   2969 C          25.6676  -11.0063   33.0493 C.ar    1  UNL1        0.0000
   2970 C          24.6112  -12.6652   35.0366 C.ar    1  UNL1        0.0000
   2971 C          29.1208   -5.7989   31.0929 C.2    29  UNL29       0.0000
   2972 C          20.8422  -18.1349   32.9072 C.2     1  UNL1        0.0000
   2973 C          24.3413  -10.8254   33.4855 C.ar    1  UNL1        0.0000
   2974 C          25.9333  -12.8475   34.6101 C.ar    1  UNL1        0.0000
   2975 C          28.3801   -4.7477   31.6506 C.2    29  UNL29       0.0000
   2976 C          21.5769  -19.1990   32.3527 C.3     1  UNL1        0.0000
   2977 C          30.4587   -5.9963   31.4566 C.3    29  UNL29       0.0000
   2978 C          19.4995  -17.9366   32.5327 C.3     1  UNL1        0.0000
   2979 C          26.4621  -12.0207   33.6179 C.ar    1  UNL1        0.0000
   2980 C          23.8158  -11.6557   34.4783 C.ar    1  UNL1        0.0000
   2981 O          27.4489  -10.3130   31.6321 O.3     1  UNL1        0.0000
   2982 O          20.8056  -16.2042   34.2916 O.2     1  UNL1        0.0000
   2983 O          22.6443  -17.5099   34.3364 O.2     1  UNL1        0.0000
   2984 O          25.4774   -9.2334   31.4683 O.3     1  UNL1        0.0000
   2985 N          28.6037   -2.5645   54.1441 N.pl3  49  UNL49       0.0000
   2986 N          28.4840   -4.3227   52.8615 N.pl3  49  UNL49       0.0000
   2987 C          28.9706   -2.1643   52.8687 C.2    49  UNL49       0.0000
   2988 C          28.9000   -3.2693   52.0651 C.2    49  UNL49       0.0000
   2989 C          29.6880   -6.4709   52.4909 C.3    49  UNL49       0.0000
   2990 C          28.5626   -1.6951   55.3249 C.3    49  UNL49       0.0000
   2991 C          28.3041   -3.8763   54.1179 C.3    49  UNL49       0.0000
   2992 C          28.3555   -5.7289   52.4290 C.3    49  UNL49       0.0000
   2993 H          29.2332   -1.1386   52.6480 H      49  UNL49       0.0000
   2994 H          29.0945   -3.3996   51.0079 H      49  UNL49       0.0000
   2995 H          30.4378   -6.0143   51.8325 H      49  UNL49       0.0000
   2996 H          29.5574   -1.2650   55.4873 H      49  UNL49       0.0000
   2997 H          30.0869   -6.4996   53.5137 H      49  UNL49       0.0000
   2998 H          27.8217   -0.9044   55.1629 H      49  UNL49       0.0000
   2999 H          29.5494   -7.5107   52.1634 H      49  UNL49       0.0000
   3000 H          27.9335   -5.7044   51.4152 H      49  UNL49       0.0000
   3001 H          28.2778   -2.2938   56.1949 H      49  UNL49       0.0000
   3002 H          27.9470   -4.4732   54.9500 H      49  UNL49       0.0000
   3003 H          27.5957   -6.1839   53.0737 H      49  UNL49       0.0000
   3004 TI         22.6264   15.7277   11.3690 Ti      1  UNL1        0.0000
   3005 TI         33.4569   18.6090    2.0042 Ti      1  UNL1        0.0000
   3006 TI         26.7231   11.7915    9.5490 Ti      1  UNL1        0.0000
   3007 TI         28.2343   20.9537    3.7760 Ti      1  UNL1        0.0000
   3008 TI         27.2357   22.6320    1.8716 Ti      1  UNL1        0.0000
   3009 TI         28.6113   11.5372   11.5024 Ti      1  UNL1        0.0000
   3010 TI         23.5756   13.9918    9.4775 Ti      1  UNL1        0.0000
   3011 TI         31.4691   18.9115    3.8517 Ti      1  UNL1        0.0000
   3012 H          23.1283   19.6248   11.1496 H       1  UNL1        0.0000
   3013 H          34.2657   14.7029    2.3249 H       1  UNL1        0.0000
   3014 H          18.6665   14.9711   10.9866 H       1  UNL1        0.0000
   3015 H          36.8390   20.6133    2.2049 H       1  UNL1        0.0000
   3016 H          29.5869    7.5027   11.1165 H       1  UNL1        0.0000
   3017 H          23.1772   22.0421    2.1937 H       1  UNL1        0.0000
   3018 H          27.7302   20.9952   -0.0015 H       1  UNL1        0.0000
   3019 H          31.5814   18.3663    0.3043 H       1  UNL1        0.0000
   3020 H          29.1212   10.8701    5.9913 H       1  UNL1        0.0000
   3021 H          26.5108   22.7907    7.3950 H       1  UNL1        0.0000
   3022 H          19.5030   17.3805    9.1216 H       1  UNL1        0.0000
   3023 H          36.2116   16.5246    4.3102 H       1  UNL1        0.0000
   3024 H          21.8041   15.9330    5.7878 H       1  UNL1        0.0000
   3025 H          24.1356   24.4598    4.2249 H       1  UNL1        0.0000
   3026 H          27.6280   25.7348    2.7271 H       1  UNL1        0.0000
   3027 H          34.1078   12.6841    3.5274 H       1  UNL1        0.0000
   3028 H          30.3269   20.6338    2.4374 H       1  UNL1        0.0000
   3029 H          25.6424   13.6399   10.8427 H       1  UNL1        0.0000
   3030 H          32.8460   13.4721    9.8921 H       1  UNL1        0.0000
   3031 H          31.3649   13.0030   10.6394 H       1  UNL1        0.0000
   3032 H          33.4202   17.9057    8.7932 H       1  UNL1        0.0000
   3033 H          32.8504   18.2643    7.1746 H       1  UNL1        0.0000
   3034 H          32.3572    8.5172    9.7020 H       1  UNL1        0.0000
   3035 H          31.0781    9.6178   10.1594 H       1  UNL1        0.0000
   3036 C          34.0349   17.8677    4.8677 C.2     1  UNL1        0.0000
   3037 C          21.6659   15.9891    8.5220 C.3     1  UNL1        0.0000
   3038 C          29.3036   10.7808    8.6243 C.3     1  UNL1        0.0000
   3039 C          26.2982   22.9242    4.7354 C.3     1  UNL1        0.0000
   3040 C          34.9309   17.2634    5.8629 C.2     1  UNL1        0.0000
   3041 C          20.7340   16.6141    7.5449 C.ar    1  UNL1        0.0000
   3042 C          30.2438   10.1665    7.6771 C.ar    1  UNL1        0.0000
   3043 C          25.4084   23.5710    5.7352 C.ar    1  UNL1        0.0000
   3044 C          34.6822   17.3383    7.2693 C.3     1  UNL1        0.0000
   3045 C          20.9504   16.4942    6.1569 C.ar    1  UNL1        0.0000
   3046 C          31.3732    9.4062    8.1302 C.ar    1  UNL1        0.0000
   3047 C          24.3136   24.3439    5.2902 C.ar    1  UNL1        0.0000
   3048 C          25.6628   23.4002    7.0900 C.ar    1  UNL1        0.0000
   3049 C          29.9961   10.2986    6.2932 C.ar    1  UNL1        0.0000
   3050 C          36.0646   16.5644    5.3872 C.3     1  UNL1        0.0000
   3051 C          19.6338   17.3066    8.0436 C.ar    1  UNL1        0.0000
   3052 C          34.2467   14.7820    0.1808 C.2     1  UNL1        0.0000
   3053 C          27.7770   26.5736    0.2058 C.2     1  UNL1        0.0000
   3054 C          36.7311   20.5451    0.0548 C.2     1  UNL1        0.0000
   3055 C          23.3728   22.0875    0.0354 C.2     1  UNL1        0.0000
   3056 C          28.9810   18.6105    5.7406 C.3     1  UNL1        0.0000
   3057 C          24.2249   11.5161    7.6587 C.3     1  UNL1        0.0000
   3058 C          34.1108   16.2368    0.1576 C.2     1  UNL1        0.0000
   3059 C          27.6842   25.1400    0.1683 C.2     1  UNL1        0.0000
   3060 C          35.4333   19.9283    0.1017 C.2     1  UNL1        0.0000
   3061 C          24.7751   22.5019    0.0599 C.2     1  UNL1        0.0000
   3062 C          34.2860   14.1129    1.4105 C.2     1  UNL1        0.0000
   3063 C          23.1392   20.2132   12.0635 C.ar    1  UNL1        0.0000
   3064 C          37.3864   20.8199    1.2888 C.3     1  UNL1        0.0000
   3065 C          18.1050   14.7917   11.9019 C.ar    1  UNL1        0.0000
   3066 C          32.7908   13.7474   11.9164 C.3     1  UNL1        0.0000
   3067 C          22.6756   21.8571    1.2479 C.2     1  UNL1        0.0000
   3068 C          29.6285    6.9755   12.0655 C.ar    1  UNL1        0.0000
   3069 C          27.7907   27.3248    1.4351 C.2     1  UNL1        0.0000
   3070 N          27.8458   26.7259    2.6732 N.pl3   1  UNL1        0.0000
   3071 N          32.2117   13.5645   10.6774 N.3     1  UNL1        0.0000
   3072 N          33.6013   17.9846    7.8006 N.3     1  UNL1        0.0000
   3073 N          31.7043    9.2479    9.4476 N.pl3   1  UNL1        0.0000
   3074 O          32.8586   18.2728    5.2335 O.2     1  UNL1        0.0000
   3075 O          22.4349   15.0383    8.1237 O.3     1  UNL1        0.0000
   3076 O          29.6851   10.9053    9.8454 O.3     1  UNL1        0.0000
   3077 O          26.2323   23.3539    3.5358 O.3     1  UNL1        0.0000
   3078 O          27.0686   21.9670    5.1218 O.3     1  UNL1        0.0000
   3079 O          28.1332   11.1493    8.2188 O.3     1  UNL1        0.0000
   3080 O          34.4468   17.9485    3.6560 O.2     1  UNL1        0.0000
   3081 O          21.6238   16.4254    9.7217 O.3     1  UNL1        0.0000
   3082 O          31.7743   17.6936    2.6570 O.3     1  UNL1        0.0000
   3083 O          24.1281   15.5522   10.2221 O.3     1  UNL1        0.0000
   3084 O          32.7131   19.9809    3.1070 O.3     1  UNL1        0.0000
   3085 O          22.3759   13.8275   10.7147 O.3     1  UNL1        0.0000
   3086 O          26.9824   10.6196   10.8095 O.3     1  UNL1        0.0000
   3087 O          28.7508   22.5150    3.0375 O.3     1  UNL1        0.0000
   3088 O          27.9363   12.8811   10.3453 O.3     1  UNL1        0.0000
   3089 O          27.0446   20.7579    2.5201 O.3     1  UNL1        0.0000
   3090 O          29.3536    9.7653   12.1115 O.3     1  UNL1        0.0000
   3091 O          27.6011   24.4386    1.2635 O.2     1  UNL1        0.0000
   3092 O          30.1558   12.5535   12.1064 O.2     1  UNL1        0.0000
   3093 O          25.3652   22.6029    1.2034 O.2     1  UNL1        0.0000
   3094 O          34.8940   19.6281    1.2496 O.2     1  UNL1        0.0000
   3095 O          20.7396   15.6677   12.0375 O.3     1  UNL1        0.0000
   3096 O          34.0984   16.8738    1.2790 O.2     1  UNL1        0.0000
   3097 O          23.0078   17.4500   12.1187 O.3     1  UNL1        0.0000
   3098 O          29.9661   20.0851    3.1580 O.3     1  UNL1        0.0000
   3099 O          25.2641   13.0812   10.1391 O.3     1  UNL1        0.0000
   3100 O          32.4202   18.8599    0.2252 O.3     1  UNL1        0.0000
   3101 O          27.8525   21.9620    0.0585 O.3     1  UNL1        0.0000
   3102 H          29.2883   15.1057    8.8063 H       1  UNL1        0.0000
   3103 H          25.3640    9.4047    6.4128 H       1  UNL1        0.0000
   3104 H          30.0843   24.1220    5.1328 H      30  UNL30       0.0000
   3105 H          30.2358   16.5957    7.0201 H       1  UNL1        0.0000
   3106 H          25.5397   17.2096    8.5714 H       1  UNL1        0.0000
   3107 H          21.6979   11.6320    6.7339 H       1  UNL1        0.0000
   3108 H          26.9502   15.4211    9.5531 H       1  UNL1        0.0000
   3109 H          26.4930   18.7072    6.7884 H       1  UNL1        0.0000
   3110 H          31.4060   22.2711    4.1312 H      30  UNL30       0.0000
   3111 H          17.7689   22.4816    4.6795 H       1  UNL1        0.0000
   3112 C          28.4199   17.7391    6.8036 C.ar    1  UNL1        0.0000
   3113 C          27.3635   16.0802    8.7908 C.ar    1  UNL1        0.0000
   3114 C          31.8731   22.9464    4.8472 C.2    30  UNL30       0.0000
   3115 C          23.5945   10.6105    6.6615 C.ar    1  UNL1        0.0000
   3116 C          27.0936   17.9200    7.2398 C.ar    1  UNL1        0.0000
   3117 C          28.6856   15.8978    8.3644 C.ar    1  UNL1        0.0000
   3118 C          31.1324   23.9977    5.4049 C.2    30  UNL30       0.0000
   3119 C          24.3292    9.5464    6.1070 C.ar    1  UNL1        0.0000
   3120 C          33.2109   22.7491    5.2108 C.3    30  UNL30       0.0000
   3121 C          22.2518   10.8088    6.2870 C.ar    1  UNL1        0.0000
   3122 C          29.2144   16.7247    7.3722 C.ar    1  UNL1        0.0000
   3123 C          26.5681   17.0897    8.2326 C.ar    1  UNL1        0.0000
   3124 O          30.2011   18.4324    5.3864 O.3     1  UNL1        0.0000
   3125 O          23.5578   12.5412    8.0459 O.3     1  UNL1        0.0000
   3126 O          25.3965   11.2355    8.0907 O.3     1  UNL1        0.0000
   3127 O          28.2297   19.5120    5.2226 O.3     1  UNL1        0.0000
   3128 N          31.3560   26.1809   27.8983 N.pl3  50  UNL50       0.0000
   3129 N          31.2363   24.4226   26.6158 N.pl3  50  UNL50       0.0000
   3130 C          31.7229   26.5811   26.6229 C.2    50  UNL50       0.0000
   3131 C          31.6522   25.4761   25.8193 C.2    50  UNL50       0.0000
   3132 C          32.4402   22.2745   26.2451 C.3    50  UNL50       0.0000
   3133 C          31.3149   27.0503   29.0792 C.3    50  UNL50       0.0000
   3134 C          31.0564   24.8690   27.8722 C.3    50  UNL50       0.0000
   3135 C          31.1078   23.0165   26.1833 C.3    50  UNL50       0.0000
   3136 H          31.9855   27.6068   26.4023 H      50  UNL50       0.0000
   3137 H          31.8468   25.3458   24.7622 H      50  UNL50       0.0000
   3138 H          33.1901   22.7311   25.5868 H      50  UNL50       0.0000
   3139 H          32.3096   27.4804   29.2416 H      50  UNL50       0.0000
   3140 H          32.8392   22.2458   27.2680 H      50  UNL50       0.0000
   3141 H          30.5740   27.8409   28.9171 H      50  UNL50       0.0000
   3142 H          32.3016   21.2346   25.9177 H      50  UNL50       0.0000
   3143 H          30.6857   23.0410   25.1695 H      50  UNL50       0.0000
   3144 H          31.0301   26.4516   29.9491 H      50  UNL50       0.0000
   3145 H          30.6993   24.2721   28.7043 H      50  UNL50       0.0000
   3146 H          30.3480   22.5615   26.8280 H      50  UNL50       0.0000
   3147 TI         17.9918    8.6613   24.4636 Ti      1  UNL1        0.0000
   3148 TI         28.8222   11.5425   15.0988 Ti      1  UNL1        0.0000
   3149 TI         22.0885    4.7251   22.6436 Ti      1  UNL1        0.0000
   3150 TI         23.5996   13.8872   16.8706 Ti      1  UNL1        0.0000
   3151 TI         22.6011   15.5656   14.9662 Ti      1  UNL1        0.0000
   3152 TI         23.9767    4.4708   24.5970 Ti      1  UNL1        0.0000
   3153 TI         18.9410    6.9254   22.5721 Ti      1  UNL1        0.0000
   3154 TI         26.8344   11.8451   16.9463 Ti      1  UNL1        0.0000
   3155 H          18.4936   12.5584   24.2442 H       1  UNL1        0.0000
   3156 H          29.6310    7.6365   15.4195 H       1  UNL1        0.0000
   3157 H          14.0319    7.9047   24.0812 H       1  UNL1        0.0000
   3158 H          32.2044   13.5468   15.2995 H       1  UNL1        0.0000
   3159 H          24.9523    0.4362   24.2111 H       1  UNL1        0.0000
   3160 H          18.5425   14.9757   15.2883 H       1  UNL1        0.0000
   3161 H          23.0955   13.9287   13.0931 H       1  UNL1        0.0000
   3162 H          26.9467   11.2998   13.3989 H       1  UNL1        0.0000
   3163 H          24.4866    3.8037   19.0859 H       1  UNL1        0.0000
   3164 H          21.8762   15.7243   20.4896 H       1  UNL1        0.0000
   3165 H          14.8683   10.3140   22.2162 H       1  UNL1        0.0000
   3166 H          31.5770    9.4582   17.4048 H       1  UNL1        0.0000
   3167 H          17.1695    8.8666   18.8824 H       1  UNL1        0.0000
   3168 H          19.5010   17.3934   17.3195 H       1  UNL1        0.0000
   3169 H          22.9933   18.6684   15.8217 H       1  UNL1        0.0000
   3170 H          29.4732    5.6176   16.6220 H       1  UNL1        0.0000
   3171 H          25.6923   13.5674   15.5320 H       1  UNL1        0.0000
   3172 H          21.0078    6.5735   23.9373 H       1  UNL1        0.0000
   3173 H          28.2114    6.4056   22.9867 H       1  UNL1        0.0000
   3174 H          26.7303    5.9366   23.7340 H       1  UNL1        0.0000
   3175 H          28.7855   10.8393   21.8878 H       1  UNL1        0.0000
   3176 H          28.2158   11.1978   20.2692 H       1  UNL1        0.0000
   3177 H          27.7226    1.4508   22.7966 H       1  UNL1        0.0000
   3178 H          26.4434    2.5514   23.2540 H       1  UNL1        0.0000
   3179 C          29.4003   10.8013   17.9623 C.2     1  UNL1        0.0000
   3180 C          17.0312    8.9227   21.6166 C.3     1  UNL1        0.0000
   3181 C          24.6690    3.7144   21.7189 C.3     1  UNL1        0.0000
   3182 C          21.6635   15.8578   17.8300 C.3     1  UNL1        0.0000
   3183 C          30.2963   10.1970   18.9575 C.2     1  UNL1        0.0000
   3184 C          16.0993    9.5477   20.6395 C.ar    1  UNL1        0.0000
   3185 C          25.6092    3.1001   20.7717 C.ar    1  UNL1        0.0000
   3186 C          20.7737   16.5046   18.8298 C.ar    1  UNL1        0.0000
   3187 C          30.0475   10.2719   20.3640 C.3     1  UNL1        0.0000
   3188 C          16.3157    9.4277   19.2515 C.ar    1  UNL1        0.0000
   3189 C          26.7386    2.3398   21.2248 C.ar    1  UNL1        0.0000
   3190 C          19.6790   17.2775   18.3848 C.ar    1  UNL1        0.0000
   3191 C          21.0282   16.3338   20.1846 C.ar    1  UNL1        0.0000
   3192 C          25.3614    3.2322   19.3878 C.ar    1  UNL1        0.0000
   3193 C          31.4300    9.4980   18.4818 C.3     1  UNL1        0.0000
   3194 C          14.9991   10.2401   21.1382 C.ar    1  UNL1        0.0000
   3195 C          29.6120    7.7155   13.2754 C.ar    1  UNL1        0.0000
   3196 C          23.1423   19.5071   13.3004 C.ar    1  UNL1        0.0000
   3197 C          32.0965   13.4787   13.1494 C.2     1  UNL1        0.0000
   3198 C          18.7381   15.0211   13.1300 C.ar    1  UNL1        0.0000
   3199 C          24.3464   11.5441   18.8352 C.3     1  UNL1        0.0000
   3200 C          19.5903    4.4497   20.7533 C.3     1  UNL1        0.0000
   3201 C          29.4762    9.1704   13.2522 C.3     1  UNL1        0.0000
   3202 C          23.0496   18.0736   13.2629 C.3     1  UNL1        0.0000
   3203 C          30.7986   12.8618   13.1963 C.2     1  UNL1        0.0000
   3204 C          20.1405   15.4354   13.1545 C.3     1  UNL1        0.0000
   3205 C          29.6514    7.0464   14.5051 C.ar    1  UNL1        0.0000
   3206 C          18.5046   13.1468   25.1581 C.ar    1  UNL1        0.0000
   3207 C          32.7518   13.7535   14.3834 C.3     1  UNL1        0.0000
   3208 C          13.4704    7.7253   24.9965 C.ar    1  UNL1        0.0000
   3209 C          28.1561    6.6809   25.0110 C.3     1  UNL1        0.0000
   3210 C          18.0410   14.7907   14.3425 C.ar    1  UNL1        0.0000
   3211 C          24.9939   -0.0909   25.1601 C.ar    1  UNL1        0.0000
   3212 C          23.1561   20.2583   14.5297 C.ar    1  UNL1        0.0000
   3213 N          23.2111   19.6595   15.7679 N.pl3   1  UNL1        0.0000
   3214 N          27.5771    6.4981   23.7721 N.3     1  UNL1        0.0000
   3215 N          28.9666   10.9181   20.8952 N.3     1  UNL1        0.0000
   3216 N          27.0696    2.1815   22.5422 N.pl3   1  UNL1        0.0000
   3217 O          28.2239   11.2064   18.3281 O.2     1  UNL1        0.0000
   3218 O          17.8002    7.9718   21.2183 O.3     1  UNL1        0.0000
   3219 O          25.0504    3.8389   22.9400 O.3     1  UNL1        0.0000
   3220 O          21.5976   16.2874   16.6304 O.3     1  UNL1        0.0000
   3221 O          22.4340   14.9005   18.2164 O.3     1  UNL1        0.0000
   3222 O          23.4985    4.0828   21.3134 O.3     1  UNL1        0.0000
   3223 O          29.8121   10.8820   16.7506 O.2     1  UNL1        0.0000
   3224 O          16.9892    9.3589   22.8163 O.3     1  UNL1        0.0000
   3225 O          27.1396   10.6272   15.7516 O.3     1  UNL1        0.0000
   3226 O          19.4934    8.4858   23.3167 O.3     1  UNL1        0.0000
   3227 O          28.0784   12.9145   16.2016 O.3     1  UNL1        0.0000
   3228 O          17.7412    6.7611   23.8093 O.3     1  UNL1        0.0000
   3229 O          22.3478    3.5531   23.9041 O.3     1  UNL1        0.0000
   3230 O          24.1162   15.4486   16.1321 O.3     1  UNL1        0.0000
   3231 O          23.3017    5.8146   23.4399 O.3     1  UNL1        0.0000
   3232 O          22.4100   13.6914   15.6147 O.3     1  UNL1        0.0000
   3233 O          24.7190    2.6989   25.2061 O.3     1  UNL1        0.0000
   3234 O          22.9665   17.3722   14.3581 O.3     1  UNL1        0.0000
   3235 O          25.5211    5.4871   25.2010 O.2     1  UNL1        0.0000
   3236 O          20.7305   15.5364   14.2980 O.3     1  UNL1        0.0000
   3237 O          30.2593   12.5616   14.3443 O.2     1  UNL1        0.0000
   3238 O          16.1050    8.6013   25.1321 O.3     1  UNL1        0.0000
   3239 O          29.4637    9.8073   14.3737 O.3     1  UNL1        0.0000
   3240 O          18.3732   10.3836   25.2133 O.3     1  UNL1        0.0000
   3241 O          25.3314   13.0186   16.2527 O.3     1  UNL1        0.0000
   3242 O          20.6295    6.0148   23.2337 O.3     1  UNL1        0.0000
   3243 O          27.7855   11.7935   13.3199 O.3     1  UNL1        0.0000
   3244 O          23.2179   14.8955   13.1531 O.3     1  UNL1        0.0000
   3245 H          24.6536    8.0393   21.9009 H       1  UNL1        0.0000
   3246 H          20.7294    2.3382   19.5074 H       1  UNL1        0.0000
   3247 H          25.4496   17.0556   18.2274 H      31  UNL31       0.0000
   3248 H          25.6012    9.5292   20.1147 H       1  UNL1        0.0000
   3249 H          20.9051   10.1431   21.6660 H       1  UNL1        0.0000
   3250 H          17.0633    4.5655   19.8285 H       1  UNL1        0.0000
   3251 H          22.3156    8.3547   22.6477 H       1  UNL1        0.0000
   3252 H          21.8584   11.6407   19.8830 H       1  UNL1        0.0000
   3253 H          26.7714   15.2046   17.2258 H      31  UNL31       0.0000
   3254 H          13.1342   15.4151   17.7741 H       1  UNL1        0.0000
   3255 C          23.7852   10.6726   19.8982 C.ar    1  UNL1        0.0000
   3256 C          22.7289    9.0137   21.8854 C.ar    1  UNL1        0.0000
   3257 C          27.2384   15.8800   17.9418 C.2    31  UNL31       0.0000
   3258 C          18.9598    3.5440   19.7561 C.ar    1  UNL1        0.0000
   3259 C          22.4590   10.8535   20.3344 C.ar    1  UNL1        0.0000
   3260 C          24.0509    8.8314   21.4590 C.ar    1  UNL1        0.0000
   3261 C          26.4978   16.9313   18.4995 C.2    31  UNL31       0.0000
   3262 C          19.6946    2.4800   19.2016 C.ar    1  UNL1        0.0000
   3263 C          28.5763   15.6826   18.3055 C.3    31  UNL31       0.0000
   3264 C          17.6172    3.7424   19.3816 C.ar    1  UNL1        0.0000
   3265 C          24.5798    9.6583   20.4668 C.ar    1  UNL1        0.0000
   3266 C          21.9334   10.0233   21.3272 C.ar    1  UNL1        0.0000
   3267 O          25.5665   11.3660   18.4810 O.3     1  UNL1        0.0000
   3268 O          18.9232    5.4748   21.1405 O.3     1  UNL1        0.0000
   3269 O          20.7619    4.1690   21.1853 O.3     1  UNL1        0.0000
   3270 O          23.5950   12.4455   18.3172 O.3     1  UNL1        0.0000
   3271 N          26.7213   19.1145   40.9929 N.pl3  51  UNL51       0.0000
   3272 N          26.6016   17.3562   39.7104 N.pl3  51  UNL51       0.0000
   3273 C          27.0882   19.5147   39.7175 C.2    51  UNL51       0.0000
   3274 C          27.0176   18.4097   38.9139 C.2    51  UNL51       0.0000
   3275 C          27.8056   15.2081   39.3397 C.3    51  UNL51       0.0000
   3276 C          26.6803   19.9839   42.1738 C.3    51  UNL51       0.0000
   3277 C          26.4217   17.8026   40.9668 C.3    51  UNL51       0.0000
   3278 C          26.4732   15.9500   39.2779 C.3    51  UNL51       0.0000
   3279 H          27.3509   20.5403   39.4969 H      51  UNL51       0.0000
   3280 H          27.2121   18.2794   37.8568 H      51  UNL51       0.0000
   3281 H          28.5554   15.6647   38.6814 H      51  UNL51       0.0000
   3282 H          27.6750   20.4140   42.3362 H      51  UNL51       0.0000
   3283 H          28.2045   15.1794   40.3626 H      51  UNL51       0.0000
   3284 H          25.9393   20.7745   42.0118 H      51  UNL51       0.0000
   3285 H          27.6670   14.1682   39.0123 H      51  UNL51       0.0000
   3286 H          26.0511   15.9745   38.2641 H      51  UNL51       0.0000
   3287 H          26.3955   19.3852   43.0438 H      51  UNL51       0.0000
   3288 H          26.0647   17.2057   41.7989 H      51  UNL51       0.0000
   3289 H          25.7133   15.4951   39.9226 H      51  UNL51       0.0000
   3290 TI         13.3571    1.5949   37.5582 Ti      1  UNL1        0.0000
   3291 TI         24.1876    4.4761   28.1934 Ti      1  UNL1        0.0000
   3292 TI         17.4538   -2.3413   35.7383 Ti      1  UNL1        0.0000
   3293 TI         18.9650    6.8208   29.9652 Ti      1  UNL1        0.0000
   3294 TI         17.9664    8.4991   28.0608 Ti      1  UNL1        0.0000
   3295 TI         19.3420   -2.5957   37.6916 Ti      1  UNL1        0.0000
   3296 TI         14.3063   -0.1410   35.6668 Ti      1  UNL1        0.0000
   3297 TI         22.1998    4.7786   30.0409 Ti      1  UNL1        0.0000
   3298 H          13.8590    5.4920   37.3388 H      32  UNL32       0.0000
   3299 H          24.9964    0.5700   28.5141 H       1  UNL1        0.0000
   3300 H           9.3972    0.8382   37.1758 H      18  UNL18       0.0000
   3301 H          27.5697    6.4804   28.3941 H       1  UNL1        0.0000
   3302 H          20.3176   -6.6302   37.3057 H      26  UNL26       0.0000
   3303 H          13.9079    7.9092   28.3829 H       1  UNL1        0.0000
   3304 H          18.4609    6.8623   26.1878 H       1  UNL1        0.0000
   3305 H          22.3121    4.2334   26.4935 H       1  UNL1        0.0000
   3306 H          19.8519   -3.2628   32.1805 H       1  UNL1        0.0000
   3307 H          17.2416    8.6578   33.5842 H       1  UNL1        0.0000
   3308 H          10.2337    3.2476   35.3108 H       1  UNL1        0.0000
   3309 H          26.9423    2.3918   30.4994 H       1  UNL1        0.0000
   3310 H          12.5348    1.8002   31.9770 H       1  UNL1        0.0000
   3311 H          14.8663   10.3270   30.4141 H       1  UNL1        0.0000
   3312 H          18.3587   11.6019   28.9163 H       1  UNL1        0.0000
   3313 H          24.8385   -1.4488   29.7166 H       1  UNL1        0.0000
   3314 H          21.0576    6.5009   28.6266 H       1  UNL1        0.0000
   3315 H          16.3731   -0.4929   37.0319 H       1  UNL1        0.0000
   3316 H          23.5767   -0.6608   36.0813 H      33  UNL33       0.0000
   3317 H          22.0956   -1.1299   36.8286 H      33  UNL33       0.0000
   3318 H          24.1509    3.7728   34.9824 H       1  UNL1        0.0000
   3319 H          23.5811    4.1314   33.3638 H       1  UNL1        0.0000
   3320 H          23.0879   -5.6156   35.8913 H       1  UNL1        0.0000
   3321 H          21.8088   -4.5151   36.3486 H       1  UNL1        0.0000
   3322 C          24.7656    3.7348   31.0570 C.2     1  UNL1        0.0000
   3323 C          12.3966    1.8563   34.7112 C.3     1  UNL1        0.0000
   3324 C          20.0343   -3.3520   34.8135 C.3     1  UNL1        0.0000
   3325 C          17.0289    8.7913   30.9246 C.3     1  UNL1        0.0000
   3326 C          25.6616    3.1305   32.0521 C.2     1  UNL1        0.0000
   3327 C          11.4647    2.4813   33.7342 C.ar    1  UNL1        0.0000
   3328 C          20.9745   -3.9664   33.8663 C.ar    1  UNL1        0.0000
   3329 C          16.1391    9.4381   31.9244 C.ar    1  UNL1        0.0000
   3330 C          25.4129    3.2054   33.4586 C.3     1  UNL1        0.0000
   3331 C          11.6811    2.3613   32.3461 C.ar    1  UNL1        0.0000
   3332 C          22.1040   -4.7267   34.3194 C.ar    1  UNL1        0.0000
   3333 C          15.0443   10.2111   31.4794 C.ar    1  UNL1        0.0000
   3334 C          16.3936    9.2674   33.2793 C.ar    1  UNL1        0.0000
   3335 C          20.7268   -3.8342   32.4824 C.ar    1  UNL1        0.0000
   3336 C          26.7953    2.4315   31.5764 C.3     1  UNL1        0.0000
   3337 C          10.3645    3.1737   34.2328 C.ar    1  UNL1        0.0000
   3338 C          24.9774    0.6491   26.3700 C.ar    1  UNL1        0.0000
   3339 C          18.5077   12.4407   26.3950 C.ar    1  UNL1        0.0000
   3340 C          27.4618    6.4122   26.2440 C.2     1  UNL1        0.0000
   3341 C          14.1035    7.9547   26.2246 C.ar    1  UNL1        0.0000
   3342 C          19.7117    4.4776   31.9298 C.3     1  UNL1        0.0000
   3343 C          14.9556   -2.6167   33.8480 C.3     1  UNL1        0.0000
   3344 C          24.8415    2.1040   26.3468 C.3     1  UNL1        0.0000
   3345 C          18.4149   11.0072   26.3575 C.3     1  UNL1        0.0000
   3346 C          26.1640    5.7954   26.2909 C.2     1  UNL1        0.0000
   3347 C          15.5058    8.3690   26.2491 C.3     1  UNL1        0.0000
   3348 C          25.0167   -0.0200   27.5997 C.ar    1  UNL1        0.0000
   3349 C          13.8699    6.0804   38.2527 C.2    32  UNL32       0.0000
   3350 C          28.1171    6.6870   27.4780 C.3     1  UNL1        0.0000
   3351 C           8.8357    0.6589   38.0911 C.2    18  UNL18       0.0000
   3352 C          23.5215   -0.3855   38.1056 C.3    33  UNL33       0.0000
   3353 C          13.4063    7.7242   27.4371 C.ar    1  UNL1        0.0000
   3354 C          20.3593   -7.1574   38.2548 C.2    26  UNL26       0.0000
   3355 C          18.5214   13.1919   27.6243 C.ar    1  UNL1        0.0000
   3356 N          18.5765   12.5930   28.8625 N.pl3   1  UNL1        0.0000
   3357 N          22.9425   -0.5683   36.8667 N.3    33  UNL33       0.0000
   3358 N          24.3320    3.8517   33.9899 N.3     1  UNL1        0.0000
   3359 N          22.4350   -4.8849   35.6368 N.pl3   1  UNL1        0.0000
   3360 O          23.5893    4.1399   31.4227 O.2     1  UNL1        0.0000
   3361 O          13.1656    0.9054   34.3129 O.3     1  UNL1        0.0000
   3362 O          20.4158   -3.2276   36.0346 O.3     1  UNL1        0.0000
   3363 O          16.9630    9.2210   29.7250 O.3     1  UNL1        0.0000
   3364 O          17.7993    7.8341   31.3110 O.3     1  UNL1        0.0000
   3365 O          18.8639   -2.9836   34.4080 O.3     1  UNL1        0.0000
   3366 O          25.1775    3.8156   29.8452 O.2     1  UNL1        0.0000
   3367 O          12.3546    2.2925   35.9109 O.3     1  UNL1        0.0000
   3368 O          22.5050    3.5607   28.8462 O.3     1  UNL1        0.0000
   3369 O          14.8588    1.4193   36.4113 O.3     1  UNL1        0.0000
   3370 O          23.4438    5.8480   29.2962 O.3     1  UNL1        0.0000
   3371 O          13.1066   -0.3053   36.9039 O.3     1  UNL1        0.0000
   3372 O          17.7131   -3.5133   36.9987 O.3     1  UNL1        0.0000
   3373 O          19.4815    8.3821   29.2267 O.3     1  UNL1        0.0000
   3374 O          18.6671   -1.2518   36.5345 O.3     1  UNL1        0.0000
   3375 O          17.7753    6.6250   28.7093 O.3     1  UNL1        0.0000
   3376 O          20.0843   -4.3675   38.3007 O.3     1  UNL1        0.0000
   3377 O          18.3318   10.3057   27.4527 O.3     1  UNL1        0.0000
   3378 O          20.8865   -1.5793   38.2956 O.3     1  UNL1        0.0000
   3379 O          16.0959    8.4700   27.3927 O.3     1  UNL1        0.0000
   3380 O          25.6247    5.4952   27.4389 O.2     1  UNL1        0.0000
   3381 O          11.4703    1.5348   38.2267 O.3     1  UNL1        0.0000
   3382 O          24.8291    2.7409   27.4683 O.3     1  UNL1        0.0000
   3383 O          13.7385    3.3172   38.3079 O.3     1  UNL1        0.0000
   3384 O          20.6968    5.9522   29.3473 O.3     1  UNL1        0.0000
   3385 O          15.9948   -1.0516   36.3283 O.3     1  UNL1        0.0000
   3386 O          23.1509    4.7271   26.4145 O.3     1  UNL1        0.0000
   3387 O          18.5832    7.8291   26.2477 O.3     1  UNL1        0.0000
   3388 H          20.0190    0.9729   34.9955 H       1  UNL1        0.0000
   3389 H          16.0947   -4.7282   32.6021 H       1  UNL1        0.0000
   3390 H          20.8150    9.9892   31.3221 H      34  UNL34       0.0000
   3391 H          20.9665    2.4628   33.2093 H       1  UNL1        0.0000
   3392 H          16.2704    3.0767   34.7606 H       1  UNL1        0.0000
   3393 H          12.4286   -2.5009   32.9231 H       1  UNL1        0.0000
   3394 H          17.6809    1.2883   35.7423 H       1  UNL1        0.0000
   3395 H          17.2237    4.5743   32.9776 H       1  UNL1        0.0000
   3396 H          22.1367    8.1382   30.3204 H      34  UNL34       0.0000
   3397 H           8.4996    8.3487   30.8687 H       1  UNL1        0.0000
   3398 C          19.1506    3.6062   32.9928 C.ar    1  UNL1        0.0000
   3399 C          18.0942    1.9473   34.9800 C.ar    1  UNL1        0.0000
   3400 C          22.6038    8.8136   31.0364 C.2    34  UNL34       0.0000
   3401 C          14.3252   -3.5224   32.8507 C.ar    1  UNL1        0.0000
   3402 C          17.8243    3.7871   33.4290 C.ar    1  UNL1        0.0000
   3403 C          19.4163    1.7650   34.5536 C.ar    1  UNL1        0.0000
   3404 C          21.8631    9.8648   31.5941 C.2    34  UNL34       0.0000
   3405 C          15.0599   -4.5865   32.2962 C.ar    1  UNL1        0.0000
   3406 C          23.9417    8.6162   31.4001 C.3    34  UNL34       0.0000
   3407 C          12.9825   -3.3241   32.4762 C.ar    1  UNL1        0.0000
   3408 C          19.9451    2.5918   33.5614 C.ar    1  UNL1        0.0000
   3409 C          17.2988    2.9568   34.4218 C.ar    1  UNL1        0.0000
   3410 O          20.9319    4.2996   31.5756 O.3     1  UNL1        0.0000
   3411 O          14.2885   -1.5916   34.2351 O.3     1  UNL1        0.0000
   3412 O          16.1272   -2.8974   34.2799 O.3     1  UNL1        0.0000
   3413 O          18.9604    5.3791   31.4118 O.3     1  UNL1        0.0000
   3414 N          22.0867   12.0480   54.0876 N.pl3  52  UNL52       0.0000
   3415 N          21.9670   10.2898   52.8050 N.pl3  52  UNL52       0.0000
   3416 C          22.4536   12.4482   52.8121 C.2    52  UNL52       0.0000
   3417 C          22.3829   11.3432   52.0085 C.2    52  UNL52       0.0000
   3418 C          23.1709    8.1416   52.4343 C.3    52  UNL52       0.0000
   3419 C          22.0456   12.9174   55.2684 C.3    52  UNL52       0.0000
   3420 C          21.7871   10.7362   54.0614 C.3    52  UNL52       0.0000
   3421 C          21.8385    8.8836   52.3725 C.3    52  UNL52       0.0000
   3422 H          22.7162   13.4739   52.5915 H      52  UNL52       0.0000
   3423 H          22.5775   11.2129   50.9514 H      52  UNL52       0.0000
   3424 H          23.9208    8.5982   51.7760 H      52  UNL52       0.0000
   3425 H          23.0403   13.3475   55.4308 H      52  UNL52       0.0000
   3426 H          23.5699    8.1129   53.4572 H      52  UNL52       0.0000
   3427 H          21.3047   13.7081   55.1064 H      52  UNL52       0.0000
   3428 H          23.0323    7.1018   52.1069 H      52  UNL52       0.0000
   3429 H          21.4164    8.9081   51.3587 H      52  UNL52       0.0000
   3430 H          21.7608   12.3188   56.1384 H      52  UNL52       0.0000
   3431 H          21.4300   10.1393   54.8935 H      52  UNL52       0.0000
   3432 H          21.0787    8.4286   53.0172 H      52  UNL52       0.0000
   3433 TI         16.1094   30.3402   11.3125 Ti      1  UNL1        0.0000
   3434 TI         26.9399   33.2215    1.9477 Ti      1  UNL1        0.0000
   3435 TI         20.2061   26.4041    9.4925 Ti      1  UNL1        0.0000
   3436 TI         21.7173   35.5662    3.7195 Ti      1  UNL1        0.0000
   3437 TI         20.7187   37.2445    1.8151 Ti      1  UNL1        0.0000
   3438 TI         22.0943   26.1497   11.4459 Ti      1  UNL1        0.0000
   3439 TI         17.0586   28.6044    9.4210 Ti      1  UNL1        0.0000
   3440 TI         24.9520   33.5240    3.7952 Ti      1  UNL1        0.0000
   3441 H          16.6113   34.2373   11.0930 H       1  UNL1        0.0000
   3442 H          27.7486   29.3154    2.2684 H       1  UNL1        0.0000
   3443 H          12.1495   29.5836   10.9300 H       1  UNL1        0.0000
   3444 H          30.3220   35.2258    2.1483 H       1  UNL1        0.0000
   3445 H          23.0699   22.1152   11.0600 H       1  UNL1        0.0000
   3446 H          16.6602   36.6546    2.1372 H       1  UNL1        0.0000
   3447 H          21.2131   35.6077   -0.0580 H       1  UNL1        0.0000
   3448 H          25.0643   32.9788    0.2478 H       1  UNL1        0.0000
   3449 H          22.6042   25.4826    5.9348 H       1  UNL1        0.0000
   3450 H          19.9938   37.4032    7.3384 H       1  UNL1        0.0000
   3451 H          12.9860   31.9930    9.0651 H       1  UNL1        0.0000
   3452 H          29.6946   31.1371    4.2537 H       1  UNL1        0.0000
   3453 H          15.2871   30.5455    5.7313 H       1  UNL1        0.0000
   3454 H          17.6186   39.0724    4.1683 H       1  UNL1        0.0000
   3455 H          21.1109   40.3473    2.6706 H       1  UNL1        0.0000
   3456 H          27.5908   27.2966    3.4709 H       1  UNL1        0.0000
   3457 H          23.8099   35.2463    2.3809 H       1  UNL1        0.0000
   3458 H          19.1254   28.2524   10.7861 H       1  UNL1        0.0000
   3459 H          26.3290   28.0846    9.8355 H       1  UNL1        0.0000
   3460 H          24.8479   27.6155   10.5829 H       1  UNL1        0.0000
   3461 H          26.9031   32.5182    8.7366 H       1  UNL1        0.0000
   3462 H          26.3334   32.8768    7.1181 H       1  UNL1        0.0000
   3463 H          25.8402   23.1297    9.6455 H       1  UNL1        0.0000
   3464 H          24.5611   24.2303   10.1029 H       1  UNL1        0.0000
   3465 C          27.5179   32.4802    4.8112 C.2     1  UNL1        0.0000
   3466 C          15.1488   30.6016    8.4655 C.3     1  UNL1        0.0000
   3467 C          22.7866   25.3933    8.5678 C.3     1  UNL1        0.0000
   3468 C          19.7811   37.5367    4.6788 C.3     1  UNL1        0.0000
   3469 C          28.4139   31.8759    5.8064 C.2     1  UNL1        0.0000
   3470 C          14.2169   31.2267    7.4884 C.ar    1  UNL1        0.0000
   3471 C          23.7268   24.7790    7.6206 C.ar    1  UNL1        0.0000
   3472 C          18.8913   38.1835    5.6786 C.2     1  UNL1        0.0000
   3473 C          28.1651   31.9508    7.2128 C.3     1  UNL1        0.0000
   3474 C          14.4333   31.1067    6.1004 C.ar    1  UNL1        0.0000
   3475 C          24.8562   24.0187    8.0737 C.ar    1  UNL1        0.0000
   3476 C          17.7966   38.9565    5.2337 C.3     1  UNL1        0.0000
   3477 C          19.1458   38.0127    7.0335 C.2     1  UNL1        0.0000
   3478 C          23.4791   24.9111    6.2367 C.ar    1  UNL1        0.0000
   3479 C          29.5476   31.1769    5.3307 C.3     1  UNL1        0.0000
   3480 C          13.1168   31.9191    7.9871 C.ar    1  UNL1        0.0000
   3481 C          27.7297   29.3945    0.1243 C.2     1  UNL1        0.0000
   3482 C          21.2599   41.1861    0.1493 C.2     1  UNL1        0.0000
   3483 C          30.2141   35.1576   -0.0017 C.2     1  UNL1        0.0000
   3484 C          16.8558   36.7000   -0.0211 C.2     1  UNL1        0.0000
   3485 C          22.4640   33.2230    5.6841 C.3     1  UNL1        0.0000
   3486 C          17.7079   26.1286    7.6022 C.3     1  UNL1        0.0000
   3487 C          27.5938   30.8493    0.1011 C.2     1  UNL1        0.0000
   3488 C          21.1672   39.7526    0.1118 C.2     1  UNL1        0.0000
   3489 C          28.9163   34.5408    0.0451 C.2     1  UNL1        0.0000
   3490 C          18.2581   37.1144    0.0033 C.2     1  UNL1        0.0000
   3491 C          27.7690   28.7254    1.3540 C.2     1  UNL1        0.0000
   3492 C          16.6222   34.8257   12.0069 C.3     1  UNL1        0.0000
   3493 C          30.8694   35.4324    1.2322 C.3     1  UNL1        0.0000
   3494 C          11.5880   29.4042   11.8454 C.ar    1  UNL1        0.0000
   3495 C          26.2738   28.3599   11.8599 C.3     1  UNL1        0.0000
   3496 C          16.1586   36.4696    1.1914 C.2     1  UNL1        0.0000
   3497 C          23.1115   21.5880   12.0090 C.ar    1  UNL1        0.0000
   3498 C          21.2737   41.9373    1.3786 C.3     1  UNL1        0.0000
   3499 N          21.3288   41.3384    2.6167 N.3     1  UNL1        0.0000
   3500 N          25.6947   28.1770   10.6209 N.3     1  UNL1        0.0000
   3501 N          27.0843   32.5971    7.7441 N.3     1  UNL1        0.0000
   3502 N          25.1872   23.8604    9.3911 N.pl3   1  UNL1        0.0000
   3503 O          26.3416   32.8853    5.1770 O.2     1  UNL1        0.0000
   3504 O          15.9178   29.6508    8.0672 O.3     1  UNL1        0.0000
   3505 O          23.1680   25.5178    9.7889 O.3     1  UNL1        0.0000
   3506 O          19.7153   37.9664    3.4792 O.3     1  UNL1        0.0000
   3507 O          20.5516   36.5795    5.0653 O.3     1  UNL1        0.0000
   3508 O          21.6161   25.7618    8.1623 O.3     1  UNL1        0.0000
   3509 O          27.9298   32.5610    3.5995 O.2     1  UNL1        0.0000
   3510 O          15.1068   31.0379    9.6652 O.3     1  UNL1        0.0000
   3511 O          25.2573   32.3061    2.6005 O.3     1  UNL1        0.0000
   3512 O          17.6110   30.1647   10.1655 O.3     1  UNL1        0.0000
   3513 O          26.1960   34.5934    3.0504 O.3     1  UNL1        0.0000
   3514 O          15.8589   28.4400   10.6582 O.3     1  UNL1        0.0000
   3515 O          20.4654   25.2321   10.7529 O.3     1  UNL1        0.0000
   3516 O          22.2338   37.1275    2.9810 O.3     1  UNL1        0.0000
   3517 O          21.4193   27.4936   10.2888 O.3     1  UNL1        0.0000
   3518 O          20.5276   35.3704    2.4636 O.3     1  UNL1        0.0000
   3519 O          22.8366   24.3778   12.0550 O.3     1  UNL1        0.0000
   3520 O          21.0841   39.0511    1.2070 O.2     1  UNL1        0.0000
   3521 O          23.6387   27.1660   12.0499 O.2     1  UNL1        0.0000
   3522 O          18.8481   37.2154    1.1469 O.2     1  UNL1        0.0000
   3523 O          28.3769   34.2406    1.1931 O.2     1  UNL1        0.0000
   3524 O          14.2226   30.2802   11.9809 O.3     1  UNL1        0.0000
   3525 O          27.5814   31.4863    1.2225 O.2     1  UNL1        0.0000
   3526 O          16.4908   32.0625   12.0622 O.2     1  UNL1        0.0000
   3527 O          23.4490   34.6976    3.1015 O.3     1  UNL1        0.0000
   3528 O          18.7471   27.6938   10.0825 O.3     1  UNL1        0.0000
   3529 O          25.9032   33.4724    0.1687 O.3     1  UNL1        0.0000
   3530 O          21.3355   36.5745    0.0020 O.3     1  UNL1        0.0000
   3531 H          22.7712   29.7183    8.7497 H       1  UNL1        0.0000
   3532 H          18.8470   24.0172    6.3563 H       1  UNL1        0.0000
   3533 H          23.5673   38.7345    5.0763 H      35  UNL35       0.0000
   3534 H          23.7188   31.2082    6.9636 H       1  UNL1        0.0000
   3535 H          19.0227   31.8221    8.5149 H       1  UNL1        0.0000
   3536 H          15.1809   26.2445    6.6774 H       1  UNL1        0.0000
   3537 H          20.4332   30.0336    9.4965 H       1  UNL1        0.0000
   3538 H          19.9760   33.3197    6.7318 H       1  UNL1        0.0000
   3539 H          24.8890   36.8836    4.0747 H      35  UNL35       0.0000
   3540 H          11.2518   37.0941    4.6230 H      19  UNL19       0.0000
   3541 C          21.9028   32.3516    6.7471 C.ar    1  UNL1        0.0000
   3542 C          20.8465   30.6927    8.7343 C.ar    1  UNL1        0.0000
   3543 C          25.3560   37.5590    4.7906 C.2    35  UNL35       0.0000
   3544 C          17.0775   25.2230    6.6050 C.ar    1  UNL1        0.0000
   3545 C          20.5766   32.5325    7.1832 C.ar    1  UNL1        0.0000
   3546 C          22.1686   30.5104    8.3079 C.ar    1  UNL1        0.0000
   3547 C          24.6154   38.6102    5.3483 C.2    35  UNL35       0.0000
   3548 C          17.8122   24.1589    6.0505 C.ar    1  UNL1        0.0000
   3549 C          26.6939   37.3616    5.1543 C.3    35  UNL35       0.0000
   3550 C          15.7348   25.4213    6.2304 C.ar    1  UNL1        0.0000
   3551 C          22.6974   31.3372    7.3157 C.ar    1  UNL1        0.0000
   3552 C          20.0510   31.7022    8.1761 C.ar    1  UNL1        0.0000
   3553 O          23.6841   33.0449    5.3298 O.3     1  UNL1        0.0000
   3554 O          17.0408   27.1537    7.9894 O.3     1  UNL1        0.0000
   3555 O          18.8795   25.8480    8.0342 O.3     1  UNL1        0.0000
   3556 O          21.7127   34.1245    5.1661 O.3     1  UNL1        0.0000
   3557 N          24.8389   40.7934   27.8418 N.pl3  53  UNL53       0.0000
   3558 N          24.7192   39.0352   26.5593 N.pl3  53  UNL53       0.0000
   3559 C          25.2058   41.1936   26.5664 C.2    53  UNL53       0.0000
   3560 C          25.1352   40.0886   25.7628 C.2    53  UNL53       0.0000
   3561 C          25.9232   36.8870   26.1886 C.3    53  UNL53       0.0000
   3562 C          24.7979   41.6628   29.0227 C.3    53  UNL53       0.0000
   3563 C          24.5394   39.4816   27.8157 C.3    53  UNL53       0.0000
   3564 C          24.5908   37.6290   26.1267 C.3    53  UNL53       0.0000
   3565 H          25.4685   42.2193   26.3457 H      53  UNL53       0.0000
   3566 H          25.3297   39.9583   24.7057 H      53  UNL53       0.0000
   3567 H          26.6731   37.3436   25.5303 H      53  UNL53       0.0000
   3568 H          25.7926   42.0929   29.1851 H      53  UNL53       0.0000
   3569 H          26.3222   36.8583   27.2115 H      53  UNL53       0.0000
   3570 H          24.0569   42.4534   28.8606 H      53  UNL53       0.0000
   3571 H          25.7846   35.8471   25.8612 H      53  UNL53       0.0000
   3572 H          24.1687   37.6535   25.1130 H      53  UNL53       0.0000
   3573 H          24.5131   41.0641   29.8926 H      53  UNL53       0.0000
   3574 H          24.1823   38.8846   28.6478 H      53  UNL53       0.0000
   3575 H          23.8310   37.1740   26.7715 H      53  UNL53       0.0000
   3576 TI         11.4747   23.2738   24.4071 Ti      1  UNL1        0.0000
   3577 TI         22.3052   26.1550   15.0423 Ti      1  UNL1        0.0000
   3578 TI         15.5714   19.3376   22.5871 Ti      1  UNL1        0.0000
   3579 TI         17.0826   28.4998   16.8141 Ti      1  UNL1        0.0000
   3580 TI         16.0840   30.1781   14.9097 Ti      1  UNL1        0.0000
   3581 TI         17.4596   19.0833   24.5405 Ti      1  UNL1        0.0000
   3582 TI         12.4239   21.5379   22.5156 Ti      1  UNL1        0.0000
   3583 TI         20.3174   26.4576   16.8898 Ti      1  UNL1        0.0000
   3584 H          11.9766   27.1709   24.1877 H       1  UNL1        0.0000
   3585 H          23.1140   22.2490   15.3630 H       1  UNL1        0.0000
   3586 H           7.5148   22.5172   24.0247 H       1  UNL1        0.0000
   3587 H          25.6874   28.1593   15.2430 H       1  UNL1        0.0000
   3588 H          18.4352   15.0487   24.1546 H       1  UNL1        0.0000
   3589 H          12.0255   29.5882   15.2318 H       1  UNL1        0.0000
   3590 H          16.5785   28.5413   13.0366 H       1  UNL1        0.0000
   3591 H          20.4297   25.9123   13.3424 H       1  UNL1        0.0000
   3592 H          17.9695   18.4162   19.0294 H       1  UNL1        0.0000
   3593 H          15.3592   30.3368   20.4331 H       1  UNL1        0.0000
   3594 H           8.3513   24.9265   22.1597 H       1  UNL1        0.0000
   3595 H          25.0600   24.0707   17.3483 H       1  UNL1        0.0000
   3596 H          10.6524   23.4791   18.8259 H       1  UNL1        0.0000
   3597 H          12.9840   32.0059   17.2629 H       1  UNL1        0.0000
   3598 H          16.4763   33.2809   15.7652 H       1  UNL1        0.0000
   3599 H          22.9562   20.2301   16.5655 H       1  UNL1        0.0000
   3600 H          19.1752   28.1799   15.4755 H       1  UNL1        0.0000
   3601 H          14.4907   21.1860   23.8808 H       1  UNL1        0.0000
   3602 H          21.6944   21.0181   22.9302 H       1  UNL1        0.0000
   3603 H          20.2132   20.5491   23.6775 H       1  UNL1        0.0000
   3604 H          22.2685   25.4518   21.8313 H       1  UNL1        0.0000
   3605 H          21.6988   25.8103   20.2127 H       1  UNL1        0.0000
   3606 H          21.2056   16.0633   22.7401 H       1  UNL1        0.0000
   3607 H          19.9264   17.1639   23.1975 H       1  UNL1        0.0000
   3608 C          22.8832   25.4138   17.9058 C.2     1  UNL1        0.0000
   3609 C          10.5142   23.5352   21.5601 C.3     1  UNL1        0.0000
   3610 C          18.1519   18.3269   21.6624 C.3     1  UNL1        0.0000
   3611 C          15.1465   30.4703   17.7735 C.3     1  UNL1        0.0000
   3612 C          23.7793   24.8095   18.9010 C.2     1  UNL1        0.0000
   3613 C           9.5823   24.1602   20.5830 C.ar    1  UNL1        0.0000
   3614 C          19.0921   17.7126   20.7152 C.ar    1  UNL1        0.0000
   3615 C          14.2567   31.1171   18.7732 C.2     1  UNL1        0.0000
   3616 C          23.5305   24.8844   20.3074 C.3     1  UNL1        0.0000
   3617 C           9.7987   24.0402   19.1950 C.ar    1  UNL1        0.0000
   3618 C          20.2216   16.9523   21.1683 C.ar    1  UNL1        0.0000
   3619 C          13.1619   31.8900   18.3283 C.3     1  UNL1        0.0000
   3620 C          14.5112   30.9463   20.1281 C.2     1  UNL1        0.0000
   3621 C          18.8444   17.8447   19.3313 C.ar    1  UNL1        0.0000
   3622 C          24.9129   24.1105   18.4253 C.3     1  UNL1        0.0000
   3623 C           8.4821   24.8526   21.0817 C.ar    1  UNL1        0.0000
   3624 C          23.0950   22.3280   13.2189 C.ar    1  UNL1        0.0000
   3625 C          16.6253   34.1196   13.2439 C.2     1  UNL1        0.0000
   3626 C          25.5795   28.0912   13.0929 C.2     1  UNL1        0.0000
   3627 C          12.2211   29.6336   13.0735 C.ar    1  UNL1        0.0000
   3628 C          17.8293   26.1566   18.7787 C.3     1  UNL1        0.0000
   3629 C          13.0732   19.0622   20.6968 C.3     1  UNL1        0.0000
   3630 C          22.9592   23.7829   13.1957 C.3     1  UNL1        0.0000
   3631 C          16.5325   32.6861   13.2064 C.2     1  UNL1        0.0000
   3632 C          24.2816   27.4743   13.1397 C.2     1  UNL1        0.0000
   3633 C          13.6234   30.0479   13.0980 C.3     1  UNL1        0.0000
   3634 C          23.1344   21.6589   14.4486 C.ar    1  UNL1        0.0000
   3635 C          11.9875   27.7593   25.1015 C.3     1  UNL1        0.0000
   3636 C          26.2348   28.3660   14.3268 C.3     1  UNL1        0.0000
   3637 C           6.9533   22.3378   24.9400 C.ar    1  UNL1        0.0000
   3638 C          21.6391   21.2934   24.9545 C.3     1  UNL1        0.0000
   3639 C          11.5239   29.4032   14.2860 C.ar    1  UNL1        0.0000
   3640 C          18.4769   14.5216   25.1036 C.ar    1  UNL1        0.0000
   3641 C          16.6391   34.8708   14.4732 C.3     1  UNL1        0.0000
   3642 N          16.6941   34.2720   15.7113 N.3     1  UNL1        0.0000
   3643 N          21.0601   21.1106   23.7155 N.3     1  UNL1        0.0000
   3644 N          22.4496   25.5306   20.8387 N.3     1  UNL1        0.0000
   3645 N          20.5526   16.7940   22.4857 N.pl3   1  UNL1        0.0000
   3646 O          21.7069   25.8189   18.2716 O.2     1  UNL1        0.0000
   3647 O          11.2832   22.5843   21.1618 O.3     1  UNL1        0.0000
   3648 O          18.5334   18.4514   22.8835 O.3     1  UNL1        0.0000
   3649 O          15.0806   30.8999   16.5739 O.3     1  UNL1        0.0000
   3650 O          15.9170   29.5130   18.1599 O.3     1  UNL1        0.0000
   3651 O          16.9815   18.6954   21.2569 O.3     1  UNL1        0.0000
   3652 O          23.2951   25.4945   16.6941 O.2     1  UNL1        0.0000
   3653 O          10.4722   23.9714   22.7598 O.3     1  UNL1        0.0000
   3654 O          20.6226   25.2397   15.6951 O.3     1  UNL1        0.0000
   3655 O          12.9764   23.0983   23.2601 O.3     1  UNL1        0.0000
   3656 O          21.5614   27.5270   16.1450 O.3     1  UNL1        0.0000
   3657 O          11.2242   21.3736   23.7528 O.3     1  UNL1        0.0000
   3658 O          15.8307   18.1657   23.8475 O.3     1  UNL1        0.0000
   3659 O          17.5992   30.0611   16.0756 O.3     1  UNL1        0.0000
   3660 O          16.7847   20.4271   23.3834 O.3     1  UNL1        0.0000
   3661 O          15.8929   28.3040   15.5582 O.3     1  UNL1        0.0000
   3662 O          18.2019   17.3114   25.1496 O.3     1  UNL1        0.0000
   3663 O          16.4494   31.9847   14.3016 O.2     1  UNL1        0.0000
   3664 O          19.0041   20.0996   25.1445 O.2     1  UNL1        0.0000
   3665 O          14.2135   30.1489   14.2415 O.3     1  UNL1        0.0000
   3666 O          23.7423   27.1742   14.2877 O.2     1  UNL1        0.0000
   3667 O           9.5879   23.2138   25.0755 O.3     1  UNL1        0.0000
   3668 O          22.9467   24.4198   14.3171 O.3     1  UNL1        0.0000
   3669 O          11.8561   24.9961   25.1568 O.2     1  UNL1        0.0000
   3670 O          18.8144   27.6311   16.1961 O.3     1  UNL1        0.0000
   3671 O          14.1125   20.6273   23.1772 O.3     1  UNL1        0.0000
   3672 O          21.2685   26.4060   13.2633 O.3     1  UNL1        0.0000
   3673 O          16.7009   29.5081   13.0966 O.3     1  UNL1        0.0000
   3674 H          18.1366   22.6518   21.8444 H       1  UNL1        0.0000
   3675 H          14.2124   16.9507   19.4509 H       1  UNL1        0.0000
   3676 H          18.9326   31.6681   18.1709 H      54  UNL54       0.0000
   3677 H          19.0841   24.1417   20.0582 H       1  UNL1        0.0000
   3678 H          14.3881   24.7557   21.6095 H       1  UNL1        0.0000
   3679 H          10.5462   19.1781   19.7720 H       1  UNL1        0.0000
   3680 H          15.7986   22.9672   22.5912 H       1  UNL1        0.0000
   3681 H          15.3413   26.2532   19.8265 H       1  UNL1        0.0000
   3682 H          20.2543   29.8171   17.1693 H      54  UNL54       0.0000
   3683 H           6.6172   30.0277   17.7176 H      20  UNL20       0.0000
   3684 C          17.2682   25.2851   19.8417 C.ar    1  UNL1        0.0000
   3685 C          16.2118   23.6263   21.8289 C.ar    1  UNL1        0.0000
   3686 C          20.7214   30.4925   17.8853 C.2    54  UNL54       0.0000
   3687 C          12.4428   18.1565   19.6996 C.ar    1  UNL1        0.0000
   3688 C          15.9419   25.4660   20.2778 C.ar    1  UNL1        0.0000
   3689 C          17.5339   23.4439   21.4025 C.ar    1  UNL1        0.0000
   3690 C          19.9807   31.5438   18.4429 C.2    54  UNL54       0.0000
   3691 C          13.1775   17.0925   19.1451 C.ar    1  UNL1        0.0000
   3692 C          22.0593   30.2951   18.2489 C.3    54  UNL54       0.0000
   3693 C          11.1001   18.3549   19.3251 C.ar    1  UNL1        0.0000
   3694 C          18.0627   24.2708   20.4103 C.ar    1  UNL1        0.0000
   3695 C          15.4164   24.6358   21.2707 C.ar    1  UNL1        0.0000
   3696 O          19.0495   25.9785   18.4244 O.3     1  UNL1        0.0000
   3697 O          12.4062   20.0873   21.0840 O.3     1  UNL1        0.0000
   3698 O          14.2448   18.7815   21.1288 O.3     1  UNL1        0.0000
   3699 O          17.0780   27.0581   18.2607 O.3     1  UNL1        0.0000
   3700 N          20.2043   33.7270   40.9364 N.pl3  54  UNL54       0.0000
   3701 N          20.0846   31.9687   39.6539 N.pl3  54  UNL54       0.0000
   3702 C          20.5712   34.1272   39.6610 C.2    54  UNL54       0.0000
   3703 C          20.5006   33.0222   38.8574 C.2    54  UNL54       0.0000
   3704 C          21.2886   29.8206   39.2832 C.3    54  UNL54       0.0000
   3705 C          20.1632   34.5964   42.1173 C.3    54  UNL54       0.0000
   3706 C          19.9047   32.4151   40.9103 C.3    54  UNL54       0.0000
   3707 C          19.9561   30.5626   39.2213 C.3    54  UNL54       0.0000
   3708 H          20.8338   35.1528   39.4404 H      54  UNL54       0.0000
   3709 H          20.6951   32.8919   37.8003 H      54  UNL54       0.0000
   3710 H          22.0384   30.2772   38.6249 H      54  UNL54       0.0000
   3711 H          21.1580   35.0265   42.2797 H      54  UNL54       0.0000
   3712 H          21.6875   29.7919   40.3061 H      54  UNL54       0.0000
   3713 H          19.4223   35.3870   41.9552 H      54  UNL54       0.0000
   3714 H          21.1499   28.7807   38.9558 H      54  UNL54       0.0000
   3715 H          19.5340   30.5870   38.2076 H      54  UNL54       0.0000
   3716 H          19.8784   33.9977   42.9872 H      54  UNL54       0.0000
   3717 H          19.5476   31.8182   41.7424 H      54  UNL54       0.0000
   3718 H          19.1963   30.1076   39.8661 H      54  UNL54       0.0000
   3719 TI          6.8401   16.2074   37.5017 Ti      1  UNL1        0.0000
   3720 TI         17.6706   19.0886   28.1369 Ti      1  UNL1        0.0000
   3721 TI         10.9368   12.2712   35.6817 Ti      1  UNL1        0.0000
   3722 TI         12.4480   21.4333   29.9087 Ti      1  UNL1        0.0000
   3723 TI         11.4494   23.1116   28.0043 Ti      1  UNL1        0.0000
   3724 TI         12.8250   12.0168   37.6351 Ti      1  UNL1        0.0000
   3725 TI          7.7893   14.4715   35.6102 Ti      1  UNL1        0.0000
   3726 TI         15.6827   19.3911   29.9844 Ti      1  UNL1        0.0000
   3727 H           7.3420   20.1045   37.2823 H      54  UNL54       0.0000
   3728 H          18.4793   15.1825   28.4576 H       1  UNL1        0.0000
   3729 H           2.8802   15.4508   37.1193 H      22  UNL22       0.0000
   3730 H          21.0527   21.0929   28.3376 H       1  UNL1        0.0000
   3731 H          13.8006    7.9823   37.2492 H      32  UNL32       0.0000
   3732 H           7.3909   22.5217   28.3264 H       1  UNL1        0.0000
   3733 H          11.9438   21.4748   26.1312 H       1  UNL1        0.0000
   3734 H          15.7950   18.8459   26.4370 H       1  UNL1        0.0000
   3735 H          13.3349   11.3497   32.1240 H       1  UNL1        0.0000
   3736 H          10.7245   23.2703   33.5277 H       1  UNL1        0.0000
   3737 H           3.7167   17.8601   35.2543 H       1  UNL1        0.0000
   3738 H          20.4253   17.0043   30.4429 H       1  UNL1        0.0000
   3739 H           6.0178   16.4127   31.9205 H       1  UNL1        0.0000
   3740 H           8.3493   24.9395   30.3576 H       1  UNL1        0.0000
   3741 H          11.8416   26.2145   28.8598 H       1  UNL1        0.0000
   3742 H          18.3215   13.1637   29.6601 H       1  UNL1        0.0000
   3743 H          14.5406   21.1134   28.5701 H       1  UNL1        0.0000
   3744 H           9.8561   14.1196   36.9754 H       1  UNL1        0.0000
   3745 H          17.0597   13.9517   36.0248 H      54  UNL54       0.0000
   3746 H          15.5786   13.4826   36.7721 H      54  UNL54       0.0000
   3747 H          17.6338   18.3853   34.9259 H       1  UNL1        0.0000
   3748 H          17.0641   18.7439   33.3073 H       1  UNL1        0.0000
   3749 H          16.5709    8.9969   35.8347 H       1  UNL1        0.0000
   3750 H          15.2918   10.0974   36.2921 H       1  UNL1        0.0000
   3751 C          18.2486   18.3474   31.0004 C.2     1  UNL1        0.0000
   3752 C           5.8795   16.4688   34.6547 C.3     1  UNL1        0.0000
   3753 C          13.5173   11.2605   34.7570 C.3     1  UNL1        0.0000
   3754 C          10.5118   23.4038   30.8681 C.3     1  UNL1        0.0000
   3755 C          19.1446   17.7430   31.9956 C.2     1  UNL1        0.0000
   3756 C           4.9476   17.0938   33.6776 C.ar    1  UNL1        0.0000
   3757 C          14.4575   10.6461   33.8098 C.ar    1  UNL1        0.0000
   3758 C           9.6220   24.0506   31.8679 C.2     1  UNL1        0.0000
   3759 C          18.8959   17.8180   33.4020 C.3     1  UNL1        0.0000
   3760 C           5.1640   16.9738   32.2896 C.ar    1  UNL1        0.0000
   3761 C          15.5869    9.8858   34.2629 C.ar    1  UNL1        0.0000
   3762 C           8.5273   24.8236   31.4229 C.3     1  UNL1        0.0000
   3763 C           9.8765   23.8799   33.2227 C.2     1  UNL1        0.0000
   3764 C          14.2098   10.7783   32.4259 C.ar    1  UNL1        0.0000
   3765 C          20.2783   17.0441   31.5199 C.3     1  UNL1        0.0000
   3766 C           3.8475   17.7862   34.1763 C.ar    1  UNL1        0.0000
   3767 C          18.4604   15.2616   26.3135 C.ar    1  UNL1        0.0000
   3768 C          11.9906   27.0532   26.3385 C.2     1  UNL1        0.0000
   3769 C          20.9448   21.0247   26.1875 C.2     1  UNL1        0.0000
   3770 C           7.5865   22.5672   26.1681 C.ar    1  UNL1        0.0000
   3771 C          13.1947   19.0901   31.8733 C.3     1  UNL1        0.0000
   3772 C           8.4386   11.9958   33.7914 C.3     1  UNL1        0.0000
   3773 C          18.3245   16.7165   26.2903 C.3     1  UNL1        0.0000
   3774 C          11.8979   25.6197   26.3010 C.2     1  UNL1        0.0000
   3775 C          19.6470   20.4079   26.2344 C.2     1  UNL1        0.0000
   3776 C           8.9888   22.9815   26.1926 C.3     1  UNL1        0.0000
   3777 C          18.4997   14.5925   27.5432 C.ar    1  UNL1        0.0000
   3778 C           7.3529   20.6929   38.1962 C.3    55  UNL55       0.0000
   3779 C          21.6001   21.2995   27.4215 C.3     1  UNL1        0.0000
   3780 C           2.3187   15.2714   38.0346 C.2    22  UNL22       0.0000
   3781 C          17.0045   14.2270   38.0491 C.3    54  UNL54       0.0000
   3782 C           6.8893   22.3367   27.3806 C.ar    1  UNL1        0.0000
   3783 C          13.8422    7.4551   38.1982 C.2    32  UNL32       0.0000
   3784 C          12.0044   27.8044   27.5678 C.3     1  UNL1        0.0000
   3785 N          12.0595   27.2056   28.8059 N.3     1  UNL1        0.0000
   3786 N          16.4254   14.0442   36.8101 N.3    54  UNL54       0.0000
   3787 N          17.8150   18.4642   33.9333 N.3     1  UNL1        0.0000
   3788 N          15.9179    9.7276   35.5803 N.pl3   1  UNL1        0.0000
   3789 O          17.0723   18.7524   31.3662 O.2     1  UNL1        0.0000
   3790 O           6.6485   15.5179   34.2564 O.3     1  UNL1        0.0000
   3791 O          13.8987   11.3850   35.9781 O.3     1  UNL1        0.0000
   3792 O          10.4460   23.8335   29.6685 O.3     1  UNL1        0.0000
   3793 O          11.2823   22.4466   31.2545 O.3     1  UNL1        0.0000
   3794 O          12.3469   11.6289   34.3515 O.3     1  UNL1        0.0000
   3795 O          18.6605   18.4281   29.7887 O.2     1  UNL1        0.0000
   3796 O           5.8375   16.9050   35.8544 O.3     1  UNL1        0.0000
   3797 O          15.9880   18.1732   28.7897 O.3     1  UNL1        0.0000
   3798 O           8.3417   16.0318   36.3548 O.3     1  UNL1        0.0000
   3799 O          16.9268   20.4605   29.2397 O.3     1  UNL1        0.0000
   3800 O           6.5896   14.3072   36.8474 O.3     1  UNL1        0.0000
   3801 O          11.1961   11.0992   36.9422 O.3     1  UNL1        0.0000
   3802 O          12.9645   22.9946   29.1702 O.3     1  UNL1        0.0000
   3803 O          12.1500   13.3607   36.4780 O.3     1  UNL1        0.0000
   3804 O          11.2583   21.2375   28.6528 O.3     1  UNL1        0.0000
   3805 O          13.5673   10.2450   38.2442 O.3     1  UNL1        0.0000
   3806 O          11.8148   24.9182   27.3962 O.2     1  UNL1        0.0000
   3807 O          14.3694   13.0332   38.2391 O.3     1  UNL1        0.0000
   3808 O           9.5788   23.0825   27.3361 O.3     1  UNL1        0.0000
   3809 O          19.1076   20.1077   27.3823 O.2     1  UNL1        0.0000
   3810 O           4.9533   16.1473   38.1702 O.3     1  UNL1        0.0000
   3811 O          18.3121   17.3534   27.4117 O.3     1  UNL1        0.0000
   3812 O           7.2215   17.9297   38.2514 O.3     1  UNL1        0.0000
   3813 O          14.1798   20.5647   29.2907 O.3     1  UNL1        0.0000
   3814 O           9.4778   13.5609   36.2718 O.3     1  UNL1        0.0000
   3815 O          16.6339   19.3396   26.3579 O.3     1  UNL1        0.0000
   3816 O          12.0662   22.4416   26.1912 O.3     1  UNL1        0.0000
   3817 H          13.5019   15.5854   34.9390 H       1  UNL1        0.0000
   3818 H           9.5777    9.8843   32.5455 H       1  UNL1        0.0000
   3819 H          14.2980   24.6017   31.2655 H      54  UNL54       0.0000
   3820 H          14.4495   17.0753   33.1528 H       1  UNL1        0.0000
   3821 H           9.7534   17.6892   34.7041 H       1  UNL1        0.0000
   3822 H           5.9116   12.1116   32.8666 H       1  UNL1        0.0000
   3823 H          11.1639   15.9008   35.6858 H       1  UNL1        0.0000
   3824 H          10.7067   19.1868   32.9211 H       1  UNL1        0.0000
   3825 H          15.6197   22.7507   30.2639 H      54  UNL54       0.0000
   3826 H           1.9825   22.9612   30.8122 H      23  UNL23       0.0000
   3827 C          12.6335   18.2187   32.9363 C.ar    1  UNL1        0.0000
   3828 C          11.5772   16.5598   34.9235 C.ar    1  UNL1        0.0000
   3829 C          16.0867   23.4261   30.9799 C.2    54  UNL54       0.0000
   3830 C           7.8082   11.0901   32.7942 C.ar    1  UNL1        0.0000
   3831 C          11.3073   18.3996   33.3725 C.ar    1  UNL1        0.0000
   3832 C          12.8993   16.3775   34.4971 C.ar    1  UNL1        0.0000
   3833 C          15.3461   24.4773   31.5376 C.2    54  UNL54       0.0000
   3834 C           8.5429   10.0260   32.2397 C.ar    1  UNL1        0.0000
   3835 C          17.4246   23.2287   31.3435 C.3    54  UNL54       0.0000
   3836 C           6.4655   11.2884   32.4197 C.ar    1  UNL1        0.0000
   3837 C          13.4281   17.2044   33.5049 C.ar    1  UNL1        0.0000
   3838 C          10.7817   17.5693   34.3653 C.ar    1  UNL1        0.0000
   3839 O          14.4148   18.9121   31.5191 O.3     1  UNL1        0.0000
   3840 O           7.7715   13.0209   34.1786 O.3     1  UNL1        0.0000
   3841 O           9.6102   11.7151   34.2234 O.3     1  UNL1        0.0000
   3842 O          12.4434   19.9916   31.3553 O.3     1  UNL1        0.0000
   3843 N          15.5697   26.6605   54.0310 N.pl3  54  UNL54       0.0000
   3844 N          15.4499   24.9023   52.7485 N.pl3  54  UNL54       0.0000
   3845 C          15.9366   27.0607   52.7556 C.2    54  UNL54       0.0000
   3846 C          15.8659   25.9557   51.9520 C.2    54  UNL54       0.0000
   3847 C          16.6539   22.7541   52.3778 C.3    54  UNL54       0.0000
   3848 C          15.5286   27.5299   55.2119 C.3    54  UNL54       0.0000
   3849 C          15.2701   25.3487   54.0049 C.3    54  UNL54       0.0000
   3850 C          15.3215   23.4961   52.3160 C.3    54  UNL54       0.0000
   3851 H          16.1992   28.0864   52.5350 H      54  UNL54       0.0000
   3852 H          16.0604   25.8254   50.8949 H      54  UNL54       0.0000
   3853 H          17.4038   23.2107   51.7195 H      54  UNL54       0.0000
   3854 H          16.5233   27.9600   55.3743 H      54  UNL54       0.0000
   3855 H          17.0529   22.7255   53.4007 H      54  UNL54       0.0000
   3856 H          14.7876   28.3206   55.0498 H      54  UNL54       0.0000
   3857 H          16.5153   21.7143   52.0504 H      54  UNL54       0.0000
   3858 H          14.8994   23.5206   51.3022 H      54  UNL54       0.0000
   3859 H          15.2438   26.9313   56.0818 H      54  UNL54       0.0000
   3860 H          14.9130   24.7518   54.8370 H      54  UNL54       0.0000
   3861 H          14.5617   23.0411   52.9607 H      54  UNL54       0.0000
@<TRIPOS>BOND
     1   873   956    1
     2   910   916    2
     3   910   922    1
     4   909   915    2
     5   909   919    1
     6   444   527    1
     7   956   863    1
     8   916   948    1
     9  2160  2243    1
    10   481   487    2
    11   481   493    1
    12   915   949    1
    13   480   486    2
    14   480   490    1
    15    15    98    1
    16   527   434    1
    17   487   519    1
    18  2197  2203    2
    19  2197  2209    1
    20  2196  2202    2
    21  2196  2206    1
    22  1731  1814    1
    23  2243  2150    1
    24    52    58    2
    25    52    64    1
    26  2203  2235    1
    27   913   907    2
    28   913   951    1
    29   486   520    1
    30    51    57    2
    31    51    61    1
    32   914   908    2
    33   914   946    1
    34    98     5    1
    35    58    90    1
    36  3447  3530    1
    37   907   917    1
    38  1768  1774    2
    39  1768  1780    1
    40  2202  2236    1
    41  1767  1773    2
    42  1767  1777    1
    43  1302  1385    1
    44  1814  1721    1
    45   908   924    1
    46  1774  1806    1
    47   484   478    2
    48   484   522    1
    49  3484  3490    2
    50  3484  3496    1
    51    57    91    1
    52   485   479    2
    53   485   517    1
    54   955   874    1
    55   955   860    1
    56  3483  3489    2
    57  3483  3493    1
    58  3018  3101    1
    59   478   488    1
    60  3530  3437    1
    61  1339  1345    2
    62  1339  1351    1
    63  3490  3522    1
    64  2200  2194    2
    65  2200  2238    1
    66  1773  1807    1
    67  1338  1344    2
    68  1338  1348    1
    69  2201  2195    2
    70  2201  2233    1
    71  1385  1292    1
    72   479   495    1
    73  1345  1377    1
    74  2194  2204    1
    75    55    49    2
    76    55    93    1
    77  3055  3061    2
    78  3055  3067    1
    79  3489  3523    1
    80    56    50    2
    81    56    88    1
    82   526   445    1
    83   526   431    1
    84  3054  3060    2
    85  3054  3064    1
    86  2589  2672    1
    87    49    59    1
    88  3101  3008    1
    89  2195  2211    1
    90  3061  3093    1
    91  1771  1765    2
    92  1771  1809    1
    93  1344  1378    1
    94  1772  1766    2
    95  1772  1804    1
    96  2242  2161    1
    97  2242  2147    1
    98    50    66    1
    99  1765  1775    1
   100  2626  2632    2
   101  2626  2638    1
   102  3487  3481    2
   103  3487  3525    1
   104  3060  3094    1
   105    97    16    1
   106    97     2    1
   107  2625  2631    2
   108  2625  2635    1
   109  3488  3482    2
   110  3488  3520    1
   111  2672  2579    1
   112  1766  1782    1
   113  2632  2664    1
   114  3481  3491    1
   115  1342  1336    2
   116  1342  1380    1
   117  1343  1337    2
   118  1343  1375    1
   119  1813  1732    1
   120  1813  1718    1
   121  1336  1346    1
   122  3482  3498    1
   123  3058  3052    2
   124  3058  3096    1
   125  2631  2665    1
   126  3059  3053    2
   127  3059  3091    1
   128  3529  3448    1
   129  3529  3434    1
   130  1337  1353    1
   131  3052  3062    1
   132  1384  1303    1
   133  1384  1289    1
   134  3053  3069    1
   135  2629  2623    2
   136  2629  2667    1
   137  2630  2624    2
   138  2630  2662    1
   139  3100  3019    1
   140  3100  3005    1
   141  2623  2633    1
   142  2624  2640    1
   143  2671  2590    1
   144  2671  2576    1
   145   948   863    1
   146   922   872    1
   147   949   860    1
   148   519   434    1
   149   946   863    1
   150   951   860    1
   151   919  2209    2
   152   919   870    1
   153  2235  2150    1
   154   493   443    1
   155   520   431    1
   156    90     5    1
   157   517   434    1
   158   522   431    1
   159  2209  2159    1
   160  2236  2147    1
   161   490  1780    2
   162   490   441    1
   163  1806  1721    1
   164  2233  2150    1
   165    64    14    1
   166    91     2    1
   167  2238  2147    1
   168    88     5    1
   169  2206  3496    2
   170  2206  2157    1
   171  3522  3437    1
   172    93     2    1
   173  1780  1730    1
   174  1807  1718    1
   175    61  1351    2
   176    61    12    1
   177  1377  1292    1
   178  1804  1721    1
   179   917   495    2
   180   917   868    1
   181  1809  1718    1
   182  3496  3446    1
   183  3523  3434    1
   184  1777  3067    2
   185  1777  1728    1
   186   924   925    1
   187  3093  3008    1
   188  3520  3437    1
   189  1351  1301    1
   190  1378  1289    1
   191  3525  3434    1
   192  1375  1292    1
   193   488    66    2
   194   488   439    1
   195  3493  3444    1
   196  1380  1289    1
   197  3067  3017    1
   198  3094  3005    1
   199  1348  2638    2
   200  1348  1299    1
   201   495   496    1
   202  2664  2579    1
   203  3091  3008    1
   204  2204  1782    2
   205  2204  2155    1
   206  3096  3005    1
   207    59    10    1
   208  3064  3015    1
   209  2211  2212    1
   210  2638  2588    1
   211  2665  2576    1
   212    66    67    1
   213  2662  2579    1
   214  1775  1353    2
   215  1775  1726    1
   216  2667  2576    1
   217  2635  2586    1
   218  1782  1783    1
   219  3491  3069    2
   220  3491  3442    1
   221  1346  1297    1
   222  3498  3499    1
   223  1353  1354    1
   224  3062  2640    2
   225  3062  3013    1
   226  3069  3070    1
   227  2633  2584    1
   228  2640  2641    1
   229   863   944    1
   230   863   942    1
   231   863   932    1
   232   434   515    1
   233   434   513    1
   234   434   503    1
   235  2150  2231    1
   236  2150  2229    1
   237  2150  2219    1
   238     5    86    1
   239     5    84    1
   240     5    74    1
   241   860   937    1
   242   860   939    1
   243   860   935    1
   244  1721  1802    1
   245  1721  1800    1
   246  1721  1790    1
   247  3437  3518    1
   248  3437  3516    1
   249  3437  3506    1
   250   431   508    1
   251   431   510    1
   252   431   506    1
   253  1292  1373    1
   254  1292  1371    1
   255  1292  1361    1
   256  2147  2224    1
   257  2147  2226    1
   258  2147  2222    1
   259  3008  3089    1
   260  3008  3087    1
   261  3008  3077    1
   262     2    79    1
   263     2    81    1
   264     2    77    1
   265  1718  1795    1
   266  1718  1797    1
   267  1718  1793    1
   268  2579  2660    1
   269  2579  2658    1
   270  2579  2648    1
   271  3434  3511    1
   272  3434  3513    1
   273  3434  3509    1
   274  1289  1366    1
   275  1289  1368    1
   276  1289  1364    1
   277  3005  3082    1
   278  3005  3084    1
   279  3005  3080    1
   280  2576  2653    1
   281  2576  2655    1
   282  2576  2651    1
   283   883   953    1
   284   454   524    1
   285   944   862    1
   286  2170  2240    1
   287    25    95    1
   288   515   433    1
   289  1741  1811    1
   290  2231  2149    1
   291  3457  3527    1
   292    86     4    1
   293  1312  1382    1
   294   937   866    1
   295  1802  1720    1
   296  3028  3098    1
   297   925   881    1
   298  3518  3436    1
   299   508   437    1
   300  1373  1291    1
   301  2599  2669    1
   302   496   452    1
   303   496   882    1
   304  2224  2153    1
   305  3089  3007    1
   306  2212  2168    1
   307    79     8    1
   308    67    23    1
   309    67   453    1
   310  1795  1724    1
   311  2660  2578    1
   312  1783  1739    1
   313  1783  2169    1
   314  3511  3440    1
   315  3499  3455    1
   316  1366  1295    1
   317  1354  1310    1
   318  1354  1740    1
   319  3082  3011    1
   320  3070  3026    1
   321  3070  3456    1
   322  2653  2582    1
   323  2641  2597    1
   324  2641  3027    1
   325   942   862    1
   326   513   433    1
   327   939   866    1
   328  2229  2149    1
   329    84     4    1
   330   953   866    1
   331   510   437    1
   332  1800  1720    1
   333  2226  2153    1
   334   524   437    1
   335  3516  3436    1
   336    81     8    1
   337  1371  1291    1
   338  2240  2153    1
   339  1797  1724    1
   340    95     8    1
   341  3087  3007    1
   342  3513  3440    1
   343  1811  1724    1
   344  1368  1295    1
   345  2658  2578    1
   346  3527  3440    1
   347  3084  3011    1
   348  1382  1295    1
   349  3098  3011    1
   350  2655  2582    1
   351  2669  2582    1
   352   932   894    1
   353   503   465    1
   354  2219  2181    1
   355    74    36    1
   356   935   891    1
   357  1790  1752    1
   358   506   462    1
   359  3506  3468    1
   360  1361  1323    1
   361  2222  2178    1
   362    77    33    1
   363  3077  3039    1
   364   862   933    1
   365   862   982    1
   366  1793  1749    1
   367  2648  2610    1
   368   433   504    1
   369   433   553    1
   370  3509  3465    1
   371   866   929    1
   372   866   979    1
   373  1364  1320    1
   374  2149  2220    1
   375  2149  2269    1
   376     4    75    1
   377     4   124    1
   378  3080  3036    1
   379   437   500    1
   380   437   550    1
   381  1720  1791    1
   382  1720  1840    1
   383  2153  2216    1
   384  2153  2266    1
   385  2651  2607    1
   386  3436  3507    1
   387  3436  3556    1
   388     8    71    1
   389     8   121    1
   390  1291  1362    1
   391  1291  1411    1
   392  1724  1787    1
   393  1724  1837    1
   394  3007  3078    1
   395  3007  3127    1
   396  3440  3503    1
   397  3440  3553    1
   398  1295  1358    1
   399  1295  1408    1
   400  2578  2649    1
   401  2578  2698    1
   402  3011  3074    1
   403  3011  3124    1
   404   965   969    1
   405  2582  2645    1
   406  2582  2695    1
   407   536   540    1
   408  2252  2256    1
   409   880   902    1
   410   107   111    1
   411  1823  1827    1
   412   451   473    1
   413   878   905    1
   414  3539  3543    1
   415  2167  2189    1
   416  1394  1398    1
   417    22    44    1
   418   449   476    1
   419  3110  3114    1
   420  1738  1760    1
   421  2165  2192    1
   422  3454  3476    1
   423    20    47    1
   424  2681  2685    1
   425  1309  1331    1
   426  1736  1763    1
   427  3025  3047    1
   428  3452  3479    1
   429  1307  1334    1
   430  2596  2618    1
   431  3023  3050    1
   432  2594  2621    1
   433   894   933    1
   434   894   898    1
   435  2253   975    1
   436   465   504    1
   437   465   469    1
   438  2181  2220    1
   439  2181  2185    1
   440  1824   546    1
   441   969   975    1
   442   969   973    2
   443    36    75    1
   444    36    40    1
   445  3540  2262    1
   446   891   929    1
   447   891   895    1
   448  1752  1791    1
   449  1752  1756    1
   450  1395   117    1
   451   540   546   ar
   452   540   544   ar
   453  3468  3507    1
   454  3468  3472    1
   455  3111  1833    1
   456   462   500    1
   457   462   466    1
   458  2256  2262    2
   459  2256  2260    1
   460  1323  1362    1
   461  1323  1327    1
   462  2178  2216    1
   463  2178  2182    1
   464   111   117   ar
   465   111   115   ar
   466  3039  3078    1
   467  3039  3043    1
   468  2682  1404    1
   469    33    71    1
   470    33    37    1
   471  1827  1833   ar
   472  1827  1831   ar
   473  1749  1787    1
   474  1749  1753    1
   475  3543  3549    1
   476  3543  3547    2
   477  2610  2649    1
   478  2610  2614    1
   479  3465  3503    1
   480  3465  3469    2
   481  1398  1404   ar
   482  1398  1402   ar
   483  1320  1358    1
   484  1320  1324    1
   485  3114  3120    1
   486  3114  3118    2
   487  3036  3074    1
   488  3036  3040    2
   489   959   973    1
   490  2685  2691    1
   491  2685  2689    2
   492  2607  2645    1
   493  2607  2611    2
   494   530   544    1
   495  2246  2260    1
   496   982   911    1
   497   101   115    1
   498   546  2261   ar
   499  1817  1831    1
   500   553   482    1
   501   902   898    1
   502  3533  3547    1
   503  2269  2198    1
   504   117  1832   ar
   505  1388  1402    1
   506   124    53    1
   507   473   469   ar
   508   473   904   ar
   509  1833  3548   ar
   510  3104  3118    1
   511  1840  1769    1
   512  2189  2185    1
   513   979   911    1
   514   905   895   ar
   515   905  2187   ar
   516  3556  3485    1
   517    44    40   ar
   518    44   475   ar
   519  1404  3119   ar
   520  2675  2689    1
   521  1411  1340    1
   522  1760  1756   ar
   523  1760  2191   ar
   524   550   482    1
   525   476   466   ar
   526   476  1758   ar
   527  3127  3056    1
   528   544  2263   ar
   529  3476  3472    1
   530  2266  2198    1
   531  2192  2182   ar
   532  2192  3474   ar
   533  1331  1327   ar
   534  1331  1762   ar
   535   121    53    1
   536    47    37   ar
   537    47  1329   ar
   538  2698  2627    1
   539   115  1834   ar
   540  3047  3043   ar
   541  3047  3478   ar
   542  1837  1769    1
   543  1763  1753   ar
   544  1763  3045   ar
   545  1831  3550   ar
   546  3553  3485    1
   547  3479  3469    1
   548  2618  2614   ar
   549  2618  3049   ar
   550  1408  1340    1
   551  1334  1324   ar
   552  1334  2616   ar
   553  1402  3121   ar
   554  3124  3056    1
   555  3050  3040    1
   556  2695  2627    1
   557  2621  2611    1
   558   898   903    2
   559   911   967    1
   560   879   900    1
   561   469   474   ar
   562   482   538    1
   563  2185  2190    2
   564  2198  2254    1
   565   450   471    1
   566    40    45   ar
   567    53   109    1
   568   895   899   ar
   569  2166  2187    1
   570  1756  1761   ar
   571  1769  1825    1
   572    21    42    1
   573  3472  3477    2
   574   466   470   ar
   575  3485  3541    1
   576  1737  1758    1
   577  1327  1332   ar
   578  1340  1396    1
   579  2182  2186   ar
   580  3453  3474    1
   581  3043  3048   ar
   582    37    41   ar
   583  3056  3112    1
   584  1308  1329    1
   585   875   904    1
   586  1753  1757   ar
   587  3024  3045    1
   588  2614  2619   ar
   589  2627  2683    1
   590  3469  3473    1
   591   446   475    1
   592  1324  1328   ar
   593  2595  2616    1
   594  2162  2191    1
   595  3040  3044    1
   596    17    46    1
   597   974   958    1
   598   974   970    1
   599  1733  1762    1
   600  2611  2615    1
   601   900   896    1
   602   545   529    1
   603   545   541    1
   604  3449  3478    1
   605  1304  1333    1
   606  2261  2245    1
   607  2261  2257   ar
   608   471   467    1
   609   116   100    1
   610   116   112    1
   611  3020  3049    1
   612  2187  2183   ar
   613  1832  1816    1
   614  1832  1828   ar
   615    42    38    1
   616  2591  2620    1
   617  3548  3532    1
   618  3548  3544   ar
   619   976   970    1
   620   976   962    1
   621   904   897   ar
   622  1758  1754   ar
   623  1403  1387    1
   624  1403  1399    1
   625  3474  3470   ar
   626  3119  3103    1
   627  3119  3115   ar
   628   547   541    1
   629   547   533    1
   630   475   468   ar
   631  1329  1325   ar
   632  2263  2257   ar
   633  2263  2249    1
   634  2191  2184   ar
   635  3045  3041   ar
   636  2690  2674    1
   637  2690  2686    1
   638   118   112    1
   639   118   104    1
   640    46    39    1
   641  1834  1828   ar
   642  1834  1820    1
   643  1762  1755   ar
   644  2616  2612   ar
   645  3550  3544   ar
   646  3550  3536    1
   647  3478  3471   ar
   648  1405  1399    1
   649  1405  1391    1
   650  1333  1326    1
   651  3121  3115   ar
   652  3121  3107    1
   653  3049  3042   ar
   654  2692  2686    1
   655  2692  2678    1
   656  2620  2613    1
   657   970   912    2
   658   541   483    2
   659  2257  2199    1
   660   112    54    2
   661   964   971    1
   662   967   971   ar
   663   967   977   ar
   664  1828  1770    1
   665  3544  3486    1
   666   535   542    1
   667   538   542   ar
   668   538   548   ar
   669  1399  1341    2
   670  2251  2258    1
   671  2254  2258   ar
   672  2254  2264   ar
   673  3115  3057    1
   674   106   113    1
   675   109   113   ar
   676   109   119   ar
   677  1822  1829    1
   678  1825  1829   ar
   679  1825  1835   ar
   680  2686  2628    2
   681  3538  3545    1
   682  3541  3545   ar
   683  3541  3551   ar
   684  1393  1400    1
   685  1396  1400   ar
   686  1396  1406   ar
   687   960   977    1
   688  3109  3116    1
   689  3112  3116   ar
   690  3112  3122   ar
   691   531   548    1
   692  2680  2687    1
   693   903   876    1
   694  2683  2687   ar
   695  2683  2693   ar
   696  2247  2264    1
   697   102   119    1
   698   474   447    1
   699   474   901   ar
   700  1818  1835    1
   701   888   927    1
   702  2190  2163    1
   703  3534  3551    1
   704    45    18    1
   705    45   472   ar
   706  1389  1406    1
   707   459   498    1
   708  1761  1734    1
   709  1761  2188   ar
   710   971   978   ar
   711  3105  3122    1
   712  2175  2214    1
   713  3477  3450    1
   714   899   927    1
   715   899  2193   ar
   716    30    69    1
   717  1332  1305    1
   718  1332  1759   ar
   719   542   549   ar
   720  2676  2693    1
   721  1746  1785    1
   722  3048  3021    1
   723  3048  3475   ar
   724   470   498    1
   725   470  1764   ar
   726  2258  2265   ar
   727   113   120   ar
   728  3462  3501    1
   729  2186  2214    1
   730  2186  3480   ar
   731   977   972   ar
   732  1317  1356    1
   733  2619  2592    1
   734  2619  3046   ar
   735    41    69    1
   736    41  1335   ar
   737  1829  1836   ar
   738  3033  3072    1
   739  1757  1785    1
   740  1757  3051   ar
   741  3545  3552   ar
   742   548   543   ar
   743  1400  1407   ar
   744  3473  3501    1
   745  2264  2259   ar
   746  2604  2643    1
   747  1328  1356    1
   748  1328  2622   ar
   749  3116  3123   ar
   750   119   114   ar
   751  3044  3072    1
   752  1835  1830   ar
   753  2687  2694   ar
   754   896   906    2
   755   896   892    1
   756  3551  3546   ar
   757  2615  2643    1
   758  1406  1401   ar
   759   467   477    2
   760   467   463    1
   761  3122  3117   ar
   762  2183  2193   ar
   763  2183  2179    1
   764    38    48    2
   765    38    34    1
   766   912   980    1
   767   912   981    1
   768  2693  2688   ar
   769   897   901   ar
   770   897   893    1
   771  1754  1764   ar
   772  1754  1750    1
   773   483   551    1
   774   483   552    1
   775  3470  3480   ar
   776  3470  3466    1
   777   468   472   ar
   778   468   464    1
   779  1325  1335   ar
   780  1325  1321    1
   781  2199  2267    1
   782  2199  2268    1
   783  2184  2188   ar
   784  2184  2180    1
   785    54   122    1
   786    54   123    1
   787  3041  3051   ar
   788  3041  3037    1
   789    39    43    2
   790    39    35    1
   791   927   887    1
   792  1770  1838    1
   793  1770  1839    1
   794  1755  1759   ar
   795  1755  1751    1
   796  2612  2622   ar
   797  2612  2608    1
   798  3486  3554    1
   799  3486  3555    1
   800  3471  3475   ar
   801  3471  3467    1
   802   498   458    1
   803  1341  1409    1
   804  1341  1410    1
   805  1326  1330    2
   806  1326  1322    1
   807  2214  2174    1
   808  3057  3125    1
   809  3057  3126    1
   810  3042  3046   ar
   811  3042  3038    1
   812    69    29    1
   813  1785  1745    1
   814  2628  2696    1
   815  2628  2697    1
   816  2613  2617    2
   817  2613  2609    1
   818  3501  3461    1
   819  1356  1316    1
   820  3072  3032    1
   821   906   877    1
   822   980   865    1
   823   981   861    1
   824  2643  2603    1
   825   477   448    1
   826   551   436    1
   827   930   892    1
   828   930   865    1
   829   901   928    1
   830  2193  2164    1
   831  2267  2152    1
   832   552   432    1
   833    48    19    1
   834   122     7    1
   835   501   463    1
   836   501   436    1
   837  2268  2148    1
   838   472   499    1
   839  1764  1735    1
   840  1838  1723    1
   841   123     3    1
   842  2217  2179    1
   843  2217  2152    1
   844   934   893    1
   845   934   861    1
   846  2188  2215    1
   847  3480  3451    1
   848  3554  3439    1
   849   978   961    1
   850   978   968   ar
   851    72    34    1
   852    72     7    1
   853  1839  1719    1
   854    43    70    1
   855  1335  1306    1
   856  1409  1294    1
   857  1788  1750    1
   858  1788  1723    1
   859  3555  3435    1
   860   505   464    1
   861   505   432    1
   862  1759  1786    1
   863  3051  3022    1
   864  3125  3010    1
   865   549   532    1
   866   549   539   ar
   867  1410  1290    1
   868  3504  3466    1
   869  3504  3439    1
   870  2221  2180    1
   871  2221  2148    1
   872  3475  3502    1
   873  2265  2248    1
   874  2265  2255   ar
   875  1359  1321    1
   876  1359  1294    1
   877  3126  3006    1
   878    76    35    1
   879    76     3    1
   880  1330  1357    1
   881  2622  2593    1
   882  2696  2581    1
   883   120   103    1
   884   120   110   ar
   885  3075  3037    1
   886  3075  3010    1
   887   972   968   ar
   888   972   957    1
   889  1792  1751    1
   890  1792  1719    1
   891  3046  3073    1
   892  1836  1819    1
   893  1836  1826   ar
   894  2697  2577    1
   895  3508  3467    1
   896  3508  3435    1
   897  3552  3535    1
   898  3552  3542   ar
   899  2646  2608    1
   900  2646  2581    1
   901   543   539   ar
   902   543   528    1
   903  1363  1322    1
   904  1363  1290    1
   905  2617  2644    1
   906  1407  1390    1
   907  1407  1397   ar
   908  2259  2255   ar
   909  2259  2244    1
   910  3079  3038    1
   911  3079  3006    1
   912  3123  3106    1
   913  3123  3113   ar
   914   114   110   ar
   915   114    99    1
   916  1830  1826   ar
   917  1830  1815    1
   918  2650  2609    1
   919  2650  2577    1
   920   892   936    1
   921  2694  2677    1
   922  2694  2684   ar
   923  3546  3542   ar
   924  3546  3531    1
   925  1401  1397   ar
   926  1401  1386    1
   927   463   507    1
   928  3117  3113   ar
   929  3117  3102    1
   930  2179  2223    1
   931   893   931    1
   932    34    78    1
   933  2688  2684   ar
   934  2688  2673    1
   935  1750  1794    1
   936   464   502    1
   937  3466  3510    1
   938  2180  2218    1
   939  1321  1365    1
   940    35    73    1
   941  3037  3081    1
   942  1751  1789    1
   943   968   963    1
   944  3467  3505    1
   945  2608  2652    1
   946  1322  1360    1
   947   539   534    1
   948  3038  3076    1
   949  2255  2250    1
   950   110   105    1
   951  2609  2647    1
   952  1826  1821    1
   953  3542  3537    1
   954  1397  1392    1
   955  3113  3108    1
   956  2684  2679    1
   957   928   889    1
   958   928   890    1
   959   865   954    1
   960   865   938    1
   961   865   940    1
   962   499   460    1
   963   499   461    1
   964   436   525    1
   965   436   509    1
   966   436   511    1
   967  2215  2176    1
   968  2215  2177    1
   969   861   943    1
   970   861   941    1
   971    70    31    1
   972    70    32    1
   973  2152  2241    1
   974  2152  2225    1
   975  2152  2227    1
   976     7    96    1
   977     7    80    1
   978     7    82    1
   979  1786  1747    1
   980  1786  1748    1
   981   432   514    1
   982   432   512    1
   983  1723  1812    1
   984  1723  1796    1
   985  1723  1798    1
   986  3502  3463    1
   987  3502  3464    1
   988  2148  2230    1
   989  2148  2228    1
   990  1357  1318    1
   991  1357  1319    1
   992  3439  3528    1
   993  3439  3512    1
   994  3439  3514    1
   995     3    85    1
   996     3    83    1
   997  1294  1383    1
   998  1294  1367    1
   999  1294  1369    1
  1000  3073  3034    1
  1001  3073  3035    1
  1002  1719  1801    1
  1003  1719  1799    1
  1004  3010  3099    1
  1005  3010  3083    1
  1006  3010  3085    1
  1007   936   859    1
  1008  3435  3517    1
  1009  3435  3515    1
  1010  2644  2605    1
  1011  2644  2606    1
  1012  1290  1372    1
  1013  1290  1370    1
  1014  2581  2670    1
  1015  2581  2654    1
  1016  2581  2656    1
  1017   507   430    1
  1018  3006  3088    1
  1019  3006  3086    1
  1020  2223  2146    1
  1021    78     1    1
  1022  2577  2659    1
  1023  2577  2657    1
  1024   931   864    1
  1025  1794  1717    1
  1026   885   926    1
  1027  3510  3433    1
  1028   502   435    1
  1029  1365  1288    1
  1030  2218  2151    1
  1031   456   497    1
  1032  3081  3004    1
  1033    73     6    1
  1034  2172  2213    1
  1035  1789  1722    1
  1036    27    68    1
  1037  2652  2575    1
  1038  3505  3438    1
  1039  1743  1784    1
  1040  1360  1293    1
  1041  3459  3500    1
  1042  3076  3009    1
  1043  1314  1355    1
  1044  3030  3071    1
  1045  2647  2580    1
  1046   954   884    1
  1047  2601  2642    1
  1048   525   455    1
  1049   938   859    1
  1050  2241  2171    1
  1051    96    26    1
  1052   509   430    1
  1053  1812  1742    1
  1054  2225  2146    1
  1055  3528  3458    1
  1056    80     1    1
  1057  1383  1313    1
  1058   943   864    1
  1059  1796  1717    1
  1060  3099  3029    1
  1061  3512  3433    1
  1062   514   435    1
  1063  1367  1288    1
  1064  2670  2600    1
  1065  2230  2151    1
  1066  3083  3004    1
  1067    85     6    1
  1068  1801  1722    1
  1069  2654  2575    1
  1070  3517  3438    1
  1071  1372  1293    1
  1072  3088  3009    1
  1073  2659  2580    1
  1074   886   926    1
  1075   926   921    1
  1076   457   497    1
  1077   940   859    1
  1078  2173  2213    1
  1079   497   492    1
  1080    28    68    1
  1081  2213  2208    1
  1082   511   430    1
  1083  1744  1784    1
  1084    68    63    1
  1085  2227  2146    1
  1086   941   864    1
  1087  3460  3500    1
  1088  1784  1779    1
  1089    82     1    1
  1090  1315  1355    1
  1091  3500  3495    1
  1092  1798  1717    1
  1093   512   435    1
  1094  3031  3071    1
  1095  1355  1350    1
  1096  3514  3433    1
  1097  2228  2151    1
  1098  3071  3066    1
  1099  1369  1288    1
  1100    83     6    1
  1101  2602  2642    1
  1102  3085  3004    1
  1103  1799  1722    1
  1104  2642  2637    1
  1105   869   920    1
  1106  3515  3438    1
  1107  2656  2575    1
  1108  1370  1293    1
  1109   440   491    1
  1110  3086  3009    1
  1111  2156  2207    1
  1112    11    62    1
  1113  2657  2580    1
  1114   871   923    1
  1115  1727  1778    1
  1116   867   918    1
  1117  3443  3494    1
  1118   442   494    1
  1119  1298  1349    1
  1120  2158  2210    1
  1121   438   489    1
  1122  3014  3065    1
  1123    13    65    1
  1124  2154  2205    1
  1125  1729  1781    1
  1126     9    60    1
  1127  2585  2636    1
  1128  3445  3497    1
  1129  1725  1776    1
  1130  1300  1352    1
  1131  3441  3492    1
  1132  3016  3068    1
  1133  1296  1347    1
  1134   859   950    1
  1135   859   952    1
  1136  3012  3063    1
  1137  2587  2639    1
  1138   430   521    1
  1139   430   523    1
  1140  2583  2634    1
  1141  2146  2237    1
  1142  2146  2239    1
  1143     1    92    1
  1144     1    94    1
  1145   864   947    1
  1146   864   945    1
  1147   864  1098    1
  1148  1717  1808    1
  1149  1717  1810    1
  1150  3433  3524    1
  1151  3433  3526    1
  1152   435   518    1
  1153   435   516    1
  1154   435   669    1
  1155  1288  1379    1
  1156  1288  1381    1
  1157  2151  2234    1
  1158  2151  2232    1
  1159  2151  2385    1
  1160  3004  3095    1
  1161  3004  3097    1
  1162     6    89    1
  1163     6    87    1
  1164     6   240    1
  1165  1722  1805    1
  1166  1722  1803    1
  1167  1722  1956    1
  1168  2575  2666    1
  1169  2575  2668    1
  1170  3438  3521    1
  1171  3438  3519    1
  1172  3438  3672    1
  1173  1293  1376    1
  1174  1293  1374    1
  1175  1293  1527    1
  1176  3009  3092    1
  1177  3009  3090    1
  1178  3009  3243    1
  1179  2580  2663    1
  1180  2580  2661    1
  1181  2580  2814    1
  1182   920  1053    1
  1183   921  2207   ar
  1184   921  1052   ar
  1185   491   624    1
  1186   492  1778   ar
  1187   492   623   ar
  1188  2207  2340   ar
  1189  2208  3494   ar
  1190  2208  2339   ar
  1191    62   195    1
  1192    63  1349   ar
  1193    63   194   ar
  1194   950  1059    1
  1195  1778  1911   ar
  1196  1779  3065   ar
  1197  1779  1910   ar
  1198   918  1051    1
  1199   923   489   ar
  1200   923  1050   ar
  1201  3494  3627   ar
  1202   521   630    1
  1203  3495  3626    1
  1204  1349  1482   ar
  1205   947  1058    1
  1206   945  1056    1
  1207   952  1057    1
  1208  1350  2636   ar
  1209  1350  1481   ar
  1210   489   622   ar
  1211   494    60   ar
  1212   494   621   ar
  1213  2237  2346    1
  1214  3065  3198   ar
  1215    92   201    1
  1216  3066  3197    1
  1217  2205  2338    1
  1218  2210  1776   ar
  1219  2210  2337   ar
  1220   518   629    1
  1221   516   627    1
  1222   523   628    1
  1223    60   193   ar
  1224    65   192    1
  1225  1808  1917    1
  1226  2636  2769   ar
  1227  2234  2345    1
  1228  2232  2343    1
  1229  2239  2344    1
  1230  2637  2768    1
  1231  1776  1909   ar
  1232  1781  1347   ar
  1233  1781  1908   ar
  1234  3524  3633    1
  1235    89   200    1
  1236    87   198    1
  1237    94   199    1
  1238  1379  1488    1
  1239  3492  3625    1
  1240  3497  3063   ar
  1241  3497  3624   ar
  1242  1805  1916    1
  1243  1803  1914    1
  1244  1810  1915    1
  1245  1347  1480   ar
  1246  1352  1479    1
  1247  3095  3204    1
  1248  3521  3632    1
  1249  3519  3630    1
  1250  3526  3631    1
  1251  3063  3196   ar
  1252  3068  2634   ar
  1253  3068  3195   ar
  1254  1376  1487    1
  1255  1374  1485    1
  1256  1381  1486    1
  1257  2666  2775    1
  1258  3092  3203    1
  1259  3090  3201    1
  1260  3097  3202    1
  1261  2634  2767   ar
  1262  2639  2766    1
  1263  2663  2774    1
  1264  2661  2772    1
  1265  2668  2773    1
  1266  1016  1099    1
  1267  1053  1059    2
  1268  1053  1065    1
  1269  1052  1058    1
  1270  1052  1062   ar
  1271   587   670    1
  1272  1099  1006    1
  1273  1059  1091    1
  1274  2303  2386    1
  1275   624   630    2
  1276   624   636    1
  1277  1058  1092    1
  1278   623   629    1
  1279   623   633   ar
  1280   158   241    1
  1281   670   577    1
  1282   630   662    1
  1283  2340  2346    1
  1284  2340  2352   ar
  1285  2339  2345    1
  1286  2339  2349   ar
  1287  1874  1957    1
  1288  2386  2293    1
  1289   195   201    2
  1290   195   207    1
  1291  2346  2378    1
  1292  1056  1050    1
  1293  1056  1094    1
  1294   629   663    1
  1295   194   200    1
  1296   194   204   ar
  1297  1057  1051    2
  1298  1057  1089    1
  1299   241   148    1
  1300   201   233    1
  1301  3590  3673    1
  1302  1050  1060   ar
  1303  1911  1917    1
  1304  1911  1923   ar
  1305  2345  2379    1
  1306  1910  1916    1
  1307  1910  1920   ar
  1308  1445  1528    1
  1309  1957  1864    1
  1310  1051  1067    1
  1311  1917  1949    1
  1312   627   621    1
  1313   627   665    1
  1314  3627  3633    1
  1315  3627  3639   ar
  1316   200   234    1
  1317   628   622    1
  1318   628   660    1
  1319  1098  1017    1
  1320  3626  3632    2
  1321  3626  3636    1
  1322  3161  3244    1
  1323   621   631   ar
  1324  3673  3580    1
  1325  1482  1488    1
  1326  1482  1494   ar
  1327  3633  3665    1
  1328  2343  2337    1
  1329  2343  2381    1
  1330  1916  1950    1
  1331  1481  1487    1
  1332  1481  1491   ar
  1333  2344  2338    2
  1334  2344  2376    1
  1335  1528  1435    1
  1336   622   638   ar
  1337  1488  1520    1
  1338  2337  2347   ar
  1339   198   192    2
  1340   198   236    1
  1341  3198  3204    1
  1342  3198  3210   ar
  1343  3632  3666    1
  1344   199   193    1
  1345   199   231    1
  1346   669   588    1
  1347  3197  3203    2
  1348  3197  3207    1
  1349  2732  2815    1
  1350   192   202    1
  1351  3244  3151    1
  1352  2338  2354    1
  1353  3204  3236    1
  1354  1914  1908    1
  1355  1914  1952    1
  1356  1487  1521    1
  1357  1915  1909    1
  1358  1915  1947    1
  1359  2385  2304    1
  1360   193   209   ar
  1361  1908  1918   ar
  1362  2769  2775    1
  1363  2769  2781   ar
  1364  3630  3624    1
  1365  3630  3668    1
  1366  3203  3237    1
  1367   240   159    1
  1368  2768  2774    2
  1369  2768  2778    1
  1370  3631  3625    2
  1371  3631  3663    1
  1372  2815  2722    1
  1373  1909  1925   ar
  1374  2775  2807    1
  1375  3624  3634   ar
  1376  1485  1479    2
  1377  1485  1523    1
  1378  1486  1480    1
  1379  1486  1518    1
  1380  1956  1875    1
  1381  1479  1489    1
  1382  3625  3641    1
  1383  3201  3195    1
  1384  3201  3239    1
  1385  2774  2808    1
  1386  3202  3196    1
  1387  3202  3234    1
  1388  3672  3591    1
  1389  1480  1496   ar
  1390  3195  3205   ar
  1391  1527  1446    1
  1392  3196  3212   ar
  1393  2772  2766    2
  1394  2772  2810    1
  1395  2773  2767    1
  1396  2773  2805    1
  1397  3243  3162    1
  1398  2766  2776    1
  1399  2767  2783   ar
  1400  2814  2733    1
  1401  1091  1006    1
  1402  1065  1015    1
  1403  1092  1003    1
  1404   662   577    1
  1405  1089  1006    1
  1406  1094  1003    1
  1407  1062  2352   ar
  1408  1062  1013    1
  1409  2378  2293    1
  1410   636   586    1
  1411   663   574    1
  1412   233   148    1
  1413   660   577    1
  1414   665   574    1
  1415  2352  2302    1
  1416  2379  2290    1
  1417   633  1923   ar
  1418   633   584    1
  1419  1949  1864    1
  1420  2376  2293    1
  1421   207   157    1
  1422   234   145    1
  1423  2381  2290    1
  1424   231   148    1
  1425  2349  3639   ar
  1426  2349  2300    1
  1427  3665  3580    1
  1428   236   145    1
  1429  1923  1873    1
  1430  1950  1861    1
  1431   204  1494   ar
  1432   204   155    1
  1433  1520  1435    1
  1434  1947  1864    1
  1435  1060   638   ar
  1436  1060  1011    1
  1437  1952  1861    1
  1438  3639  3589    1
  1439  3666  3577    1
  1440  1920  3210   ar
  1441  1920  1871    1
  1442  1067  1068    1
  1443  3236  3151    1
  1444  3663  3580    1
  1445  1494  1444    1
  1446  1521  1432    1
  1447  3668  3577    1
  1448  1518  1435    1
  1449   631   209   ar
  1450   631   582    1
  1451  3636  3587    1
  1452  1523  1432    1
  1453  3210  3160    1
  1454  3237  3148    1
  1455  1491  2781   ar
  1456  1491  1442    1
  1457   638   639    1
  1458  2807  2722    1
  1459  3234  3151    1
  1460  2347  1925   ar
  1461  2347  2298    1
  1462  3239  3148    1
  1463   202   153    1
  1464  3207  3158    1
  1465  2354  2355    1
  1466  2781  2731    1
  1467  2808  2719    1
  1468   209   210    1
  1469  2805  2722    1
  1470  1918  1496   ar
  1471  1918  1869    1
  1472  2810  2719    1
  1473  2778  2729    1
  1474  1925  1926    1
  1475  3634  3212   ar
  1476  3634  3585    1
  1477  1489  1440    1
  1478  3641  3642    1
  1479  1496  1497    1
  1480  3205  2783   ar
  1481  3205  3156    1
  1482  3212  3213    1
  1483  2776  2727    1
  1484  2783  2784    1
  1485  1006  1087    1
  1486  1006  1085    1
  1487  1006  1075    1
  1488   577   658    1
  1489   577   656    1
  1490   577   646    1
  1491  2293  2374    1
  1492  2293  2372    1
  1493  2293  2362    1
  1494   148   229    1
  1495   148   227    1
  1496   148   217    1
  1497  1003  1080    1
  1498  1003  1082    1
  1499  1003  1078    1
  1500  1864  1945    1
  1501  1864  1943    1
  1502  1864  1933    1
  1503  3580  3661    1
  1504  3580  3659    1
  1505  3580  3649    1
  1506   574   651    1
  1507   574   653    1
  1508   574   649    1
  1509  1435  1516    1
  1510  1435  1514    1
  1511  1435  1504    1
  1512  2290  2367    1
  1513  2290  2369    1
  1514  2290  2365    1
  1515  3151  3232    1
  1516  3151  3230    1
  1517  3151  3220    1
  1518   145   222    1
  1519   145   224    1
  1520   145   220    1
  1521  1861  1938    1
  1522  1861  1940    1
  1523  1861  1936    1
  1524  2722  2803    1
  1525  2722  2801    1
  1526  2722  2791    1
  1527  3577  3654    1
  1528  3577  3656    1
  1529  3577  3652    1
  1530  1432  1509    1
  1531  1432  1511    1
  1532  1432  1507    1
  1533  3148  3225    1
  1534  3148  3227    1
  1535  3148  3223    1
  1536  2719  2796    1
  1537  2719  2798    1
  1538  2719  2794    1
  1539  1026  1096    1
  1540   597   667    1
  1541  1087  1005    1
  1542  2313  2383    1
  1543   168   238    1
  1544   658   576    1
  1545  1884  1954    1
  1546  2374  2292    1
  1547  3600  3670    1
  1548   229   147    1
  1549  1455  1525    1
  1550  1080  1009    1
  1551  1945  1863    1
  1552  3171  3241    1
  1553  1068  1024    1
  1554  3661  3579    1
  1555   651   580    1
  1556  1516  1434    1
  1557  2742  2812    1
  1558   639   595    1
  1559   639  1025    1
  1560  2367  2296    1
  1561  3232  3150    1
  1562  2355  2311    1
  1563   222   151    1
  1564   210   166    1
  1565   210   596    1
  1566  1938  1867    1
  1567  2803  2721    1
  1568  1926  1882    1
  1569  1926  2312    1
  1570  3654  3583    1
  1571  3642  3598    1
  1572  1509  1438    1
  1573  1497  1453    1
  1574  1497  1883    1
  1575  3225  3154    1
  1576  3213  3169    1
  1577  3213  3599    1
  1578  2796  2725    1
  1579  2784  2740    1
  1580  2784  3170    1
  1581  1085  1005    1
  1582   656   576    1
  1583  1082  1009    1
  1584  2372  2292    1
  1585   227   147    1
  1586  1096  1009    1
  1587   653   580    1
  1588  1943  1863    1
  1589  2369  2296    1
  1590   667   580    1
  1591  3659  3579    1
  1592   224   151    1
  1593  1514  1434    1
  1594  2383  2296    1
  1595  1940  1867    1
  1596   238   151    1
  1597  3230  3150    1
  1598  3656  3583    1
  1599  1954  1867    1
  1600  1511  1438    1
  1601  2801  2721    1
  1602  3670  3583    1
  1603  3227  3154    1
  1604  1525  1438    1
  1605  3241  3154    1
  1606  2798  2725    1
  1607  2812  2725    1
  1608  1075  1037    1
  1609   646   608    1
  1610  2362  2324    1
  1611   217   179    1
  1612  1078  1034    1
  1613  1933  1895    1
  1614   649   605    1
  1615  3649  3611    1
  1616  1504  1466    1
  1617  2365  2321    1
  1618   220   176    1
  1619  3220  3182    1
  1620  1005  1076    1
  1621  1005  1125    1
  1622  1936  1892    1
  1623  2791  2753    1
  1624   576   647    1
  1625   576   696    1
  1626  3652  3608    1
  1627  1009  1072    1
  1628  1009  1122    1
  1629  1507  1463    1
  1630  2292  2363    1
  1631  2292  2412    1
  1632   147   218    1
  1633   147   267    1
  1634  3223  3179    1
  1635   580   643    1
  1636   580   693    1
  1637  1863  1934    1
  1638  1863  1983    1
  1639  2296  2359    1
  1640  2296  2409    1
  1641  2794  2750    1
  1642  3579  3650    1
  1643  3579  3699    1
  1644   151   214    1
  1645   151   264    1
  1646  1434  1505    1
  1647  1434  1554    1
  1648  1867  1930    1
  1649  1867  1980    1
  1650  3150  3221    1
  1651  3150  3270    1
  1652  3583  3646    1
  1653  3583  3696    1
  1654  1438  1501    1
  1655  1438  1551    1
  1656  2721  2792    1
  1657  2721  2841    1
  1658  3154  3217    1
  1659  3154  3267    1
  1660  1108  1112    1
  1661  2725  2788    1
  1662  2725  2838    1
  1663   679   683    1
  1664  2395  2399    1
  1665  1023  1045    1
  1666   250   254    1
  1667  1966  1970    1
  1668   594   616    1
  1669  1021  1048    1
  1670  3682  3686    1
  1671  2310  2332    1
  1672  1537  1541    1
  1673   165   187    1
  1674   592   619    1
  1675  3253  3257    1
  1676  1881  1903    1
  1677  2308  2335    1
  1678  3597  3619    1
  1679   163   190    1
  1680  2824  2828    1
  1681  1452  1474    1
  1682  1879  1906    1
  1683  3168  3190    1
  1684  3595  3622    1
  1685  1450  1477    1
  1686  2739  2761    1
  1687  3166  3193    1
  1688  2737  2764    1
  1689  1037  1076    1
  1690  1037  1041    1
  1691  2396  1118    1
  1692   608   647    1
  1693   608   612    1
  1694  2324  2363    1
  1695  2324  2328    1
  1696  1967   689    1
  1697  1112  1118    2
  1698  1112  1116    1
  1699   179   218    1
  1700   179   183    1
  1701  3683  2405    1
  1702  1034  1072    1
  1703  1034  1038    1
  1704  1895  1934    1
  1705  1895  1899    1
  1706  1538   260    1
  1707   683   689   ar
  1708   683   687   ar
  1709  3611  3650    1
  1710  3611  3615    1
  1711  3254  1976    1
  1712   605   643    1
  1713   605   609    1
  1714  2399  2405    2
  1715  2399  2403    1
  1716  1466  1505    1
  1717  1466  1470    1
  1718  2321  2359    1
  1719  2321  2325    1
  1720   254   260   ar
  1721   254   258   ar
  1722  3182  3221    1
  1723  3182  3186    1
  1724  2825  1547    1
  1725   176   214    1
  1726   176   180    1
  1727  1970  1976   ar
  1728  1970  1974   ar
  1729  1892  1930    1
  1730  1892  1896    1
  1731  3686  3692    1
  1732  3686  3690    2
  1733  2753  2792    1
  1734  2753  2757    1
  1735  3608  3646    1
  1736  3608  3612    2
  1737  1541  1547   ar
  1738  1541  1545   ar
  1739  1463  1501    1
  1740  1463  1467    1
  1741  3257  3263    1
  1742  3257  3261    2
  1743  3179  3217    1
  1744  3179  3183    2
  1745  1102  1116    1
  1746  2828  2834    1
  1747  2828  2832    2
  1748  2750  2788    1
  1749  2750  2754    2
  1750   673   687    1
  1751  2389  2403    1
  1752  1125  1054    1
  1753   244   258    1
  1754   689  2404   ar
  1755  1960  1974    1
  1756   696   625    1
  1757  1045  1041    1
  1758  3676  3690    1
  1759  2412  2341    1
  1760   260  1975   ar
  1761  1531  1545    1
  1762   267   196    1
  1763   616   612   ar
  1764   616  1047   ar
  1765  1976  3691   ar
  1766  3247  3261    1
  1767  1983  1912    1
  1768  2332  2328    1
  1769  1122  1054    1
  1770  1048  1038   ar
  1771  1048  2330   ar
  1772  3699  3628    1
  1773   187   183   ar
  1774   187   618   ar
  1775  1547  3262   ar
  1776  2818  2832    1
  1777  1554  1483    1
  1778  1903  1899   ar
  1779  1903  2334   ar
  1780   693   625    1
  1781   619   609   ar
  1782   619  1901   ar
  1783  3270  3199    1
  1784   687  2406   ar
  1785  3619  3615    1
  1786  2409  2341    1
  1787  2335  2325   ar
  1788  2335  3617   ar
  1789  1474  1470   ar
  1790  1474  1905   ar
  1791   264   196    1
  1792   190   180   ar
  1793   190  1472   ar
  1794  2841  2770    1
  1795   258  1977   ar
  1796  3190  3186   ar
  1797  3190  3621   ar
  1798  1980  1912    1
  1799  1906  1896   ar
  1800  1906  3188   ar
  1801  1974  3693   ar
  1802  3696  3628    1
  1803  3622  3612    1
  1804  2761  2757   ar
  1805  2761  3192   ar
  1806  1551  1483    1
  1807  1477  1467   ar
  1808  1477  2759   ar
  1809  1545  3264   ar
  1810  3267  3199    1
  1811  3193  3183    1
  1812  2838  2770    1
  1813  2764  2754    1
  1814  1041  1046    2
  1815  1054  1110    1
  1816  1022  1043    1
  1817   612   617   ar
  1818   625   681    1
  1819  2328  2333    2
  1820  2341  2397    1
  1821   593   614    1
  1822   183   188   ar
  1823   196   252    1
  1824  1038  1042   ar
  1825  2309  2330    1
  1826  1899  1904   ar
  1827  1912  1968    1
  1828   164   185    1
  1829  3615  3620    2
  1830   609   613   ar
  1831  3628  3684    1
  1832  1880  1901    1
  1833  1470  1475   ar
  1834  1483  1539    1
  1835  2325  2329   ar
  1836  3596  3617    1
  1837  3186  3191   ar
  1838   180   184   ar
  1839  3199  3255    1
  1840  1451  1472    1
  1841  1018  1047    1
  1842  1896  1900   ar
  1843  3167  3188    1
  1844  2757  2762   ar
  1845  2770  2826    1
  1846  3612  3616    1
  1847   589   618    1
  1848  1467  1471   ar
  1849  2738  2759    1
  1850  2305  2334    1
  1851  3183  3187    1
  1852   160   189    1
  1853  1117  1101    1
  1854  1117  1113    1
  1855  1876  1905    1
  1856  2754  2758    1
  1857  1043  1039    1
  1858   688   672    1
  1859   688   684    1
  1860  3592  3621    1
  1861  1447  1476    1
  1862  2404  2388    1
  1863  2404  2400   ar
  1864   614   610    1
  1865   259   243    1
  1866   259   255    1
  1867  3163  3192    1
  1868  2330  2326   ar
  1869  1975  1959    1
  1870  1975  1971   ar
  1871   185   181    1
  1872  2734  2763    1
  1873  3691  3675    1
  1874  3691  3687   ar
  1875  1119  1113    1
  1876  1119  1105    1
  1877  1047  1040   ar
  1878  1901  1897   ar
  1879  1546  1530    1
  1880  1546  1542    1
  1881  3617  3613   ar
  1882  3262  3246    1
  1883  3262  3258   ar
  1884   690   684    1
  1885   690   676    1
  1886   618   611   ar
  1887  1472  1468   ar
  1888  2406  2400   ar
  1889  2406  2392    1
  1890  2334  2327   ar
  1891  3188  3184   ar
  1892  2833  2817    1
  1893  2833  2829    1
  1894   261   255    1
  1895   261   247    1
  1896   189   182    1
  1897  1977  1971   ar
  1898  1977  1963    1
  1899  1905  1898   ar
  1900  2759  2755   ar
  1901  3693  3687   ar
  1902  3693  3679    1
  1903  3621  3614   ar
  1904  1548  1542    1
  1905  1548  1534    1
  1906  1476  1469    1
  1907  3264  3258   ar
  1908  3264  3250    1
  1909  3192  3185   ar
  1910  2835  2829    1
  1911  2835  2821    1
  1912  2763  2756    1
  1913  1113  1055    2
  1914   684   626    2
  1915  2400  2342    1
  1916   255   197    2
  1917  1107  1114    1
  1918  1110  1114   ar
  1919  1110  1120   ar
  1920  1971  1913    1
  1921  3687  3629    1
  1922   678   685    1
  1923   681   685   ar
  1924   681   691   ar
  1925  1542  1484    2
  1926  2394  2401    1
  1927  2397  2401   ar
  1928  2397  2407   ar
  1929  3258  3200    1
  1930   249   256    1
  1931   252   256   ar
  1932   252   262   ar
  1933  1965  1972    1
  1934  1968  1972   ar
  1935  1968  1978   ar
  1936  2829  2771    2
  1937  3681  3688    1
  1938  3684  3688   ar
  1939  3684  3694   ar
  1940  1536  1543    1
  1941  1539  1543   ar
  1942  1539  1549   ar
  1943  1103  1120    1
  1944  3252  3259    1
  1945  3255  3259   ar
  1946  3255  3265   ar
  1947   674   691    1
  1948  2823  2830    1
  1949  1046  1019    1
  1950  2826  2830   ar
  1951  2826  2836   ar
  1952  2390  2407    1
  1953   245   262    1
  1954   617   590    1
  1955   617  1044   ar
  1956  1961  1978    1
  1957  1031  1070    1
  1958  2333  2306    1
  1959  3677  3694    1
  1960   188   161    1
  1961   188   615   ar
  1962  1532  1549    1
  1963   602   641    1
  1964  1904  1877    1
  1965  1904  2331   ar
  1966  1114  1121   ar
  1967  3248  3265    1
  1968  2318  2357    1
  1969  3620  3593    1
  1970  1042  1070    1
  1971  1042  2336   ar
  1972   173   212    1
  1973  1475  1448    1
  1974  1475  1902   ar
  1975   685   692   ar
  1976  2819  2836    1
  1977  1889  1928    1
  1978  3191  3164    1
  1979  3191  3618   ar
  1980   613   641    1
  1981   613  1907   ar
  1982  2401  2408   ar
  1983   256   263   ar
  1984  3605  3644    1
  1985  2329  2357    1
  1986  2329  3623   ar
  1987  1120  1115   ar
  1988  1460  1499    1
  1989  2762  2735    1
  1990  2762  3189   ar
  1991   184   212    1
  1992   184  1478   ar
  1993  1972  1979   ar
  1994  3176  3215    1
  1995  1900  1928    1
  1996  1900  3194   ar
  1997  3688  3695   ar
  1998   691   686   ar
  1999  1543  1550   ar
  2000  3616  3644    1
  2001  2407  2402   ar
  2002  2747  2786    1
  2003  1471  1499    1
  2004  1471  2765   ar
  2005  3259  3266   ar
  2006   262   257   ar
  2007  3187  3215    1
  2008  1978  1973   ar
  2009  2830  2837   ar
  2010  1039  1049    2
  2011  1039  1035    1
  2012  3694  3689   ar
  2013  2758  2786    1
  2014  1549  1544   ar
  2015   610   620    2
  2016   610   606    1
  2017  3265  3260   ar
  2018  2326  2336   ar
  2019  2326  2322    1
  2020   181   191    2
  2021   181   177    1
  2022  1055  1123    1
  2023  1055  1124    1
  2024  2836  2831   ar
  2025  1040  1044   ar
  2026  1040  1036    1
  2027  1897  1907   ar
  2028  1897  1893    1
  2029   626   694    1
  2030   626   695    1
  2031  3613  3623   ar
  2032  3613  3609    1
  2033   611   615   ar
  2034   611   607    1
  2035  1468  1478   ar
  2036  1468  1464    1
  2037  2342  2410    1
  2038  2342  2411    1
  2039  2327  2331   ar
  2040  2327  2323    1
  2041   197   265    1
  2042   197   266    1
  2043  3184  3194   ar
  2044  3184  3180    1
  2045   182   186    2
  2046   182   178    1
  2047  1070  1030    1
  2048  1913  1981    1
  2049  1913  1982    1
  2050  1898  1902   ar
  2051  1898  1894    1
  2052  2755  2765   ar
  2053  2755  2751    1
  2054  3629  3697    1
  2055  3629  3698    1
  2056  3614  3618   ar
  2057  3614  3610    1
  2058   641   601    1
  2059  1484  1552    1
  2060  1484  1553    1
  2061  1469  1473    2
  2062  1469  1465    1
  2063  2357  2317    1
  2064  3200  3268    1
  2065  3200  3269    1
  2066  3185  3189   ar
  2067  3185  3181    1
  2068   212   172    1
  2069  1928  1888    1
  2070  2771  2839    1
  2071  2771  2840    1
  2072  2756  2760    2
  2073  2756  2752    1
  2074  3644  3604    1
  2075  1499  1459    1
  2076  3215  3175    1
  2077  1049  1020    1
  2078  1123  1008    1
  2079  1124  1004    1
  2080  2786  2746    1
  2081   620   591    1
  2082   694   579    1
  2083  1073  1035    1
  2084  1073  1008    1
  2085  1044  1071    1
  2086  2336  2307    1
  2087  2410  2295    1
  2088   695   575    1
  2089   191   162    1
  2090   265   150    1
  2091   644   606    1
  2092   644   579    1
  2093  2411  2291    1
  2094   615   642    1
  2095  1907  1878    1
  2096  1981  1866    1
  2097   266   146    1
  2098  2360  2322    1
  2099  2360  2295    1
  2100  1077  1036    1
  2101  1077  1004    1
  2102  2331  2358    1
  2103  3623  3594    1
  2104  3697  3582    1
  2105  1121  1104    1
  2106  1121  1111   ar
  2107   215   177    1
  2108   215   150    1
  2109  1982  1862    1
  2110   186   213    1
  2111  1478  1449    1
  2112  1552  1437    1
  2113  1931  1893    1
  2114  1931  1866    1
  2115  3698  3578    1
  2116   648   607    1
  2117   648   575    1
  2118  1902  1929    1
  2119  3194  3165    1
  2120  3268  3153    1
  2121   692   675    1
  2122   692   682   ar
  2123  1553  1433    1
  2124  3647  3609    1
  2125  3647  3582    1
  2126  2364  2323    1
  2127  2364  2291    1
  2128  3618  3645    1
  2129  2408  2391    1
  2130  2408  2398   ar
  2131  1502  1464    1
  2132  1502  1437    1
  2133  3269  3149    1
  2134   219   178    1
  2135   219   146    1
  2136  1473  1500    1
  2137  2765  2736    1
  2138  2839  2724    1
  2139   263   246    1
  2140   263   253   ar
  2141  3218  3180    1
  2142  3218  3153    1
  2143  1115  1111   ar
  2144  1115  1100    1
  2145  1935  1894    1
  2146  1935  1862    1
  2147  3189  3216    1
  2148  1979  1962    1
  2149  1979  1969   ar
  2150  2840  2720    1
  2151  3651  3610    1
  2152  3651  3578    1
  2153  3695  3678    1
  2154  3695  3685   ar
  2155  2789  2751    1
  2156  2789  2724    1
  2157   686   682   ar
  2158   686   671    1
  2159  1506  1465    1
  2160  1506  1433    1
  2161  2760  2787    1
  2162  1550  1533    1
  2163  1550  1540   ar
  2164  2402  2398   ar
  2165  2402  2387    1
  2166  3222  3181    1
  2167  3222  3149    1
  2168  3266  3249    1
  2169  3266  3256   ar
  2170   257   253   ar
  2171   257   242    1
  2172  1973  1969   ar
  2173  1973  1958    1
  2174  2793  2752    1
  2175  2793  2720    1
  2176  1035  1079    1
  2177  2837  2820    1
  2178  2837  2827   ar
  2179  3689  3685   ar
  2180  3689  3674    1
  2181  1544  1540   ar
  2182  1544  1529    1
  2183   606   650    1
  2184  3260  3256   ar
  2185  3260  3245    1
  2186  2322  2366    1
  2187  1036  1074    1
  2188   177   221    1
  2189  2831  2827   ar
  2190  2831  2816    1
  2191  1893  1937    1
  2192   607   645    1
  2193  3609  3653    1
  2194  2323  2361    1
  2195  1464  1508    1
  2196   178   216    1
  2197  3180  3224    1
  2198  1894  1932    1
  2199  1111  1106    1
  2200  3610  3648    1
  2201  2751  2795    1
  2202  1465  1503    1
  2203   682   677    1
  2204  3181  3219    1
  2205  2398  2393    1
  2206   253   248    1
  2207  2752  2790    1
  2208  1969  1964    1
  2209  3685  3680    1
  2210  1540  1535    1
  2211  3256  3251    1
  2212  2827  2822    1
  2213  1071  1032    1
  2214  1071  1033    1
  2215  1008  1097    1
  2216  1008  1081    1
  2217  1008  1083    1
  2218   642   603    1
  2219   642   604    1
  2220   579   668    1
  2221   579   652    1
  2222   579   654    1
  2223  2358  2319    1
  2224  2358  2320    1
  2225  1004  1086    1
  2226  1004  1084    1
  2227   213   174    1
  2228   213   175    1
  2229  2295  2384    1
  2230  2295  2368    1
  2231  2295  2370    1
  2232   150   239    1
  2233   150   223    1
  2234   150   225    1
  2235  1929  1890    1
  2236  1929  1891    1
  2237   575   657    1
  2238   575   655    1
  2239  1866  1955    1
  2240  1866  1939    1
  2241  1866  1941    1
  2242  3645  3606    1
  2243  3645  3607    1
  2244  2291  2373    1
  2245  2291  2371    1
  2246  1500  1461    1
  2247  1500  1462    1
  2248  3582  3671    1
  2249  3582  3655    1
  2250  3582  3657    1
  2251   146   228    1
  2252   146   226    1
  2253  1437  1526    1
  2254  1437  1510    1
  2255  1437  1512    1
  2256  3216  3177    1
  2257  3216  3178    1
  2258  1862  1944    1
  2259  1862  1942    1
  2260  3153  3242    1
  2261  3153  3226    1
  2262  3153  3228    1
  2263  1079  1002    1
  2264  3578  3660    1
  2265  3578  3658    1
  2266  2787  2748    1
  2267  2787  2749    1
  2268  1433  1515    1
  2269  1433  1513    1
  2270  2724  2813    1
  2271  2724  2797    1
  2272  2724  2799    1
  2273   650   573    1
  2274  3149  3231    1
  2275  3149  3229    1
  2276  2366  2289    1
  2277   221   144    1
  2278  2720  2802    1
  2279  2720  2800    1
  2280  1074  1007    1
  2281  1937  1860    1
  2282  1028  1069    1
  2283  3653  3576    1
  2284   645   578    1
  2285  1508  1431    1
  2286  2361  2294    1
  2287   599   640    1
  2288  3224  3147    1
  2289   216   149    1
  2290  2315  2356    1
  2291  1932  1865    1
  2292   170   211    1
  2293  2795  2718    1
  2294  3648  3581    1
  2295  1886  1927    1
  2296  1503  1436    1
  2297  3602  3643    1
  2298  3219  3152    1
  2299  1457  1498    1
  2300  3173  3214    1
  2301  2790  2723    1
  2302  1097  1027    1
  2303  2744  2785    1
  2304   668   598    1
  2305  1081  1002    1
  2306  2384  2314    1
  2307   239   169    1
  2308   652   573    1
  2309  1955  1885    1
  2310  2368  2289    1
  2311  3671  3601    1
  2312   223   144    1
  2313  1526  1456    1
  2314  1086  1007    1
  2315  1939  1860    1
  2316  3242  3172    1
  2317  3655  3576    1
  2318   657   578    1
  2319  1510  1431    1
  2320  2813  2743    1
  2321  2373  2294    1
  2322  3226  3147    1
  2323   228   149    1
  2324  1944  1865    1
  2325  2797  2718    1
  2326  3660  3581    1
  2327  1515  1436    1
  2328  3231  3152    1
  2329  2802  2723    1
  2330  1029  1069    1
  2331  1069  1064    1
  2332   600   640    1
  2333  1083  1002    1
  2334  2316  2356    1
  2335   640   635    1
  2336   171   211    1
  2337  2356  2351    1
  2338   654   573    1
  2339  1887  1927    1
  2340   211   206    1
  2341  2370  2289    1
  2342  1084  1007    1
  2343  3603  3643    1
  2344  1927  1922    1
  2345   225   144    1
  2346  1458  1498    1
  2347  3643  3638    1
  2348  1941  1860    1
  2349   655   578    1
  2350  3174  3214    1
  2351  1498  1493    1
  2352  3657  3576    1
  2353  2371  2294    1
  2354  3214  3209    1
  2355  1512  1431    1
  2356   226   149    1
  2357  2745  2785    1
  2358  3228  3147    1
  2359  1942  1865    1
  2360  2785  2780    1
  2361  1012  1063    1
  2362  3658  3581    1
  2363  2799  2718    1
  2364  1513  1436    1
  2365   583   634    1
  2366  3229  3152    1
  2367  2299  2350    1
  2368   154   205    1
  2369  2800  2723    1
  2370  1014  1066    1
  2371  1870  1921    1
  2372  1010  1061    1
  2373  3586  3637    1
  2374   585   637    1
  2375  1441  1492    1
  2376  2301  2353    1
  2377   581   632    1
  2378  3157  3208    1
  2379   156   208    1
  2380  2297  2348    1
  2381  1872  1924    1
  2382   152   203    1
  2383  2728  2779    1
  2384  3588  3640    1
  2385  1868  1919    1
  2386  1443  1495    1
  2387  3584  3635    1
  2388  3159  3211    1
  2389  1439  1490    1
  2390  1002  1093    1
  2391  1002  1095    1
  2392  3155  3206    1
  2393  2730  2782    1
  2394   573   664    1
  2395   573   666    1
  2396  2726  2777    1
  2397  2289  2380    1
  2398  2289  2382    1
  2399   144   235    1
  2400   144   237    1
  2401  1007  1090    1
  2402  1007  1088    1
  2403  1007  1241    1
  2404  1860  1951    1
  2405  1860  1953    1
  2406  3576  3667    1
  2407  3576  3669    1
  2408   578   661    1
  2409   578   659    1
  2410   578   812    1
  2411  1431  1522    1
  2412  1431  1524    1
  2413  2294  2377    1
  2414  2294  2375    1
  2415  2294  2528    1
  2416  3147  3238    1
  2417  3147  3240    1
  2418   149   232    1
  2419   149   230    1
  2420   149   383    1
  2421  1865  1948    1
  2422  1865  1946    1
  2423  1865  2099    1
  2424  2718  2809    1
  2425  2718  2811    1
  2426   992   986    1
  2427  3581  3664    1
  2428  3581  3662    1
  2429  3581  3815    1
  2430  1436  1519    1
  2431  1436  1517    1
  2432  1436  1670    1
  2433   563   557    1
  2434  3152  3235    1
  2435  3152  3233    1
  2436  3152  3386    1
  2437  2279  2273    1
  2438   134   128    1
  2439  2723  2806    1
  2440  2723  2804    1
  2441  2723  2957    1
  2442  1850  1844    1
  2443  3566  3560    1
  2444  1421  1415    1
  2445  1063  1196    1
  2446  3137  3131    1
  2447  1064  2350   ar
  2448  1064  1195   ar
  2449   634   767    1
  2450  2708  2702    1
  2451   635  1921   ar
  2452   635   766   ar
  2453  2350  2483   ar
  2454  2351  3637   ar
  2455  2351  2482   ar
  2456   205   338    1
  2457   206  1492   ar
  2458   206   337   ar
  2459  1093  1202    1
  2460  1921  2054   ar
  2461  1922  3208   ar
  2462  1922  2053   ar
  2463  1061  1194    1
  2464  1066   632   ar
  2465  1066  1193   ar
  2466   998   990    1
  2467  3637  3770   ar
  2468   664   773    1
  2469  3638  3769    1
  2470  1492  1625   ar
  2471  1090  1201    1
  2472  1088  1199    1
  2473  1095  1200    1
  2474  1493  2779   ar
  2475  1493  1624   ar
  2476   632   765   ar
  2477   637   203   ar
  2478   637   764   ar
  2479  2380  2489    1
  2480   569   561    1
  2481  3208  3341   ar
  2482   235   344    1
  2483  3209  3340    1
  2484  2348  2481    1
  2485  2353  1919   ar
  2486  2353  2480   ar
  2487   661   772    1
  2488  2285  2277    1
  2489   659   770    1
  2490   666   771    1
  2491   203   336   ar
  2492   208   335    1
  2493  1951  2060    1
  2494   140   132    1
  2495  2779  2912   ar
  2496  2377  2488    1
  2497  2375  2486    1
  2498  2382  2487    1
  2499  2780  2911    1
  2500  1919  2052   ar
  2501  1924  1490   ar
  2502  1924  2051   ar
  2503  3667  3776    1
  2504   232   343    1
  2505  1856  1848    1
  2506   230   341    1
  2507   237   342    1
  2508  1522  1631    1
  2509  3635  3768    1
  2510  3640  3206   ar
  2511  3640  3767   ar
  2512  1948  2059    1
  2513  3572  3564    1
  2514  1946  2057    1
  2515  1953  2058    1
  2516  1490  1623   ar
  2517  1495  1622    1
  2518  3238  3347    1
  2519  1427  1419    1
  2520  3664  3775    1
  2521  3662  3773    1
  2522  3669  3774    1
  2523  3206  3339   ar
  2524  3211  2777   ar
  2525  3211  3338   ar
  2526  1519  1630    1
  2527  3143  3135    1
  2528  1517  1628    1
  2529  1524  1629    1
  2530  2809  2918    1
  2531  3235  3346    1
  2532  3233  3344    1
  2533  3240  3345    1
  2534  2777  2910   ar
  2535  2782  2909    1
  2536  2714  2706    1
  2537  2806  2917    1
  2538  2804  2915    1
  2539  2811  2916    1
  2540   993   987    1
  2541   564   558    1
  2542  2280  2274    1
  2543   135   129    1
  2544  1851  1845    1
  2545  3567  3561    1
  2546  1422  1416    1
  2547   986   984    1
  2548   986   985    2
  2549  3138  3132    1
  2550   557   555    1
  2551   557   556    2
  2552  2709  2703    1
  2553  2273  2271    1
  2554  2273  2272    2
  2555   997   987    1
  2556   128   126    1
  2557   128   127    2
  2558  1844  1842    1
  2559  1844  1843    2
  2560   568   558    1
  2561  3560  3558    1
  2562  3560  3559    2
  2563  2284  2274    1
  2564  1415  1413    1
  2565  1415  1414    2
  2566   139   129    1
  2567  3131  3129    1
  2568  3131  3130    2
  2569  1855  1845    1
  2570  3571  3561    1
  2571  2702  2700    1
  2572  2702  2701    2
  2573  1426  1416    1
  2574  3142  3132    1
  2575   990   987    1
  2576   990   984    1
  2577   990  1001    1
  2578  1159  1242    1
  2579  2713  2703    1
  2580  1196  1202    2
  2581  1196  1208    1
  2582   561   558    1
  2583   561   555    1
  2584   561   572    1
  2585  1195  1201    1
  2586  1195  1205   ar
  2587   730   813    1
  2588   987   995    1
  2589  1242  1149    1
  2590  1202  1234    1
  2591  2277  2274    1
  2592  2277  2271    1
  2593  2277  2288    1
  2594  2446  2529    1
  2595   767   773    2
  2596   767   779    1
  2597  1201  1235    1
  2598   132   129    1
  2599   132   126    1
  2600   132   143    1
  2601   766   772    1
  2602   766   776   ar
  2603   301   384    1
  2604   558   566    1
  2605   813   720    1
  2606   773   805    1
  2607  2483  2489    1
  2608  2483  2495   ar
  2609  1848  1845    1
  2610  1848  1842    1
  2611  1848  1859    1
  2612  2482  2488    1
  2613  2482  2492   ar
  2614  2017  2100    1
  2615  2274  2282    1
  2616  2529  2436    1
  2617   338   344    2
  2618   338   350    1
  2619  2489  2521    1
  2620  1199  1193    1
  2621  1199  1237    1
  2622   772   806    1
  2623   337   343    1
  2624   337   347   ar
  2625  1200  1194    2
  2626  1200  1232    1
  2627   129   137    1
  2628   384   291    1
  2629   344   376    1
  2630  3564  3561    1
  2631  3564  3558    1
  2632  3564  3575    1
  2633  3733  3816    1
  2634  1193  1203   ar
  2635  2054  2060    1
  2636  2054  2066   ar
  2637  2488  2522    1
  2638  1419  1416    1
  2639  1419  1413    1
  2640  1419  1430    1
  2641  2053  2059    1
  2642  2053  2063   ar
  2643  1588  1671    1
  2644  1845  1853    1
  2645  2100  2007    1
  2646  1194  1210    1
  2647  2060  2092    1
  2648   991   985    1
  2649   770   764    1
  2650   770   808    1
  2651  3770  3776    1
  2652  3770  3782   ar
  2653   343   377    1
  2654   771   765    1
  2655   771   803    1
  2656  1241  1160    1
  2657  3135  3132    1
  2658  3135  3129    1
  2659  3135  3146    1
  2660  3769  3775    2
  2661  3769  3779    1
  2662  3304  3387    1
  2663  3561  3569    1
  2664   764   774   ar
  2665  3816  3723    1
  2666  1625  1631    1
  2667  1625  1637   ar
  2668  3776  3808    1
  2669  2486  2480    1
  2670  2486  2524    1
  2671  2059  2093    1
  2672  1624  1630    1
  2673  1624  1634   ar
  2674  2487  2481    2
  2675  2487  2519    1
  2676  1416  1424    1
  2677  1671  1578    1
  2678   765   781   ar
  2679  1631  1663    1
  2680   562   556    1
  2681  2480  2490   ar
  2682   341   335    2
  2683   341   379    1
  2684  3341  3347    1
  2685  3341  3353   ar
  2686  3775  3809    1
  2687   342   336    1
  2688   342   374    1
  2689   812   731    1
  2690  2706  2703    1
  2691  2706  2700    1
  2692  2706  2717    1
  2693  3340  3346    2
  2694  3340  3350    1
  2695  2875  2958    1
  2696  3132  3140    1
  2697   335   345    1
  2698  3387  3294    1
  2699  2481  2497    1
  2700  3347  3379    1
  2701  2278  2272    1
  2702  2057  2051    1
  2703  2057  2095    1
  2704  1630  1664    1
  2705  2058  2052    1
  2706  2058  2090    1
  2707  2528  2447    1
  2708   336   352   ar
  2709   133   127    1
  2710  2051  2061   ar
  2711  2912  2918    1
  2712  2912  2924   ar
  2713  3773  3767    1
  2714  3773  3811    1
  2715  3346  3380    1
  2716   383   302    1
  2717  2911  2917    2
  2718  2911  2921    1
  2719  3774  3768    2
  2720  3774  3806    1
  2721  2703  2711    1
  2722  2958  2865    1
  2723  2052  2068   ar
  2724  2918  2950    1
  2725  1849  1843    1
  2726  3767  3777   ar
  2727  1628  1622    2
  2728  1628  1666    1
  2729  1629  1623    1
  2730  1629  1661    1
  2731  2099  2018    1
  2732  1622  1632    1
  2733  3768  3784    1
  2734  3565  3559    1
  2735  3344  3338    1
  2736  3344  3382    1
  2737  2917  2951    1
  2738  3345  3339    1
  2739  3345  3377    1
  2740  3815  3734    1
  2741  1623  1639   ar
  2742  1420  1414    1
  2743  3338  3348   ar
  2744   984   989    1
  2745  1670  1589    1
  2746   985   983    1
  2747  3339  3355   ar
  2748  3136  3130    1
  2749  2915  2909    2
  2750  2915  2953    1
  2751  2916  2910    1
  2752  2916  2948    1
  2753  3386  3305    1
  2754  2909  2919    1
  2755   555   560    1
  2756   556   554    1
  2757  2910  2926   ar
  2758  2707  2701    1
  2759  2271  2276    1
  2760  2957  2876    1
  2761  2272  2270    1
  2762   126   131    1
  2763   127   125    1
  2764  1842  1847    1
  2765  1843  1841    1
  2766  3558  3563    1
  2767  3559  3557    1
  2768  1413  1418    1
  2769  1414  1412    1
  2770  3129  3134    1
  2771  3130  3128    1
  2772  2700  2705    1
  2773  2701  2699    1
  2774  1234  1149    1
  2775  1208  1158    1
  2776  1235  1146    1
  2777   805   720    1
  2778  1232  1149    1
  2779  1237  1146    1
  2780  1205  2495   ar
  2781  1205  1156    1
  2782  2521  2436    1
  2783   779   729    1
  2784   806   717    1
  2785   376   291    1
  2786   803   720    1
  2787   808   717    1
  2788  2495  2445    1
  2789  2522  2433    1
  2790   776  2066   ar
  2791   776   727    1
  2792  2092  2007    1
  2793  2519  2436    1
  2794   350   300    1
  2795   377   288    1
  2796  2524  2433    1
  2797   374   291    1
  2798  2492  3782   ar
  2799  2492  2443    1
  2800  3808  3723    1
  2801   379   288    1
  2802  2066  2016    1
  2803  2093  2004    1
  2804   347  1637   ar
  2805   347   298    1
  2806  1663  1578    1
  2807  2090  2007    1
  2808  1203   781   ar
  2809  1203  1154    1
  2810  2095  2004    1
  2811  3782  3732    1
  2812  3809  3720    1
  2813  2063  3353   ar
  2814  2063  2014    1
  2815  1210  1211    1
  2816  3379  3294    1
  2817  3806  3723    1
  2818  1637  1587    1
  2819  1664  1575    1
  2820  3811  3720    1
  2821  1661  1578    1
  2822   774   352   ar
  2823   774   725    1
  2824  3779  3730    1
  2825  1666  1575    1
  2826  3353  3303    1
  2827  3380  3291    1
  2828  1634  2924   ar
  2829  1634  1585    1
  2830   781   782    1
  2831  2950  2865    1
  2832  3377  3294    1
  2833  2490  2068   ar
  2834  2490  2441    1
  2835  3382  3291    1
  2836   345   296    1
  2837  3350  3301    1
  2838  2497  2498    1
  2839  2924  2874    1
  2840  2951  2862    1
  2841   352   353    1
  2842  2948  2865    1
  2843  2061  1639   ar
  2844  2061  2012    1
  2845  2953  2862    1
  2846  2921  2872    1
  2847  2068  2069    1
  2848  3777  3355   ar
  2849  3777  3728    1
  2850  1632  1583    1
  2851  3784  3785    1
  2852  1639  1640    1
  2853  3348  2926   ar
  2854  3348  3299    1
  2855  3355  3356    1
  2856   989   983    1
  2857   989  1000    1
  2858  2919  2870    1
  2859   983   988    1
  2860  2926  2927    1
  2861   560   554    1
  2862   560   571    1
  2863   554   559    1
  2864  2276  2270    1
  2865  2276  2287    1
  2866   131   125    1
  2867   131   142    1
  2868  2270  2275    1
  2869   125   130    1
  2870  1847  1841    1
  2871  1847  1858    1
  2872  1841  1846    1
  2873  3563  3557    1
  2874  3563  3574    1
  2875  1149  1230    1
  2876  1149  1228    1
  2877  1149  1218    1
  2878  1418  1412    1
  2879  1418  1429    1
  2880  3557  3562    1
  2881  1412  1417    1
  2882  3134  3128    1
  2883  3134  3145    1
  2884   720   801    1
  2885   720   799    1
  2886   720   789    1
  2887  3128  3133    1
  2888  2436  2517    1
  2889  2436  2515    1
  2890  2436  2505    1
  2891  2705  2699    1
  2892  2705  2716    1
  2893   291   372    1
  2894   291   370    1
  2895   291   360    1
  2896  2699  2704    1
  2897  1146  1223    1
  2898  1146  1225    1
  2899  1146  1221    1
  2900  2007  2088    1
  2901  2007  2086    1
  2902  2007  2076    1
  2903  3723  3804    1
  2904  3723  3802    1
  2905  3723  3792    1
  2906   717   794    1
  2907   717   796    1
  2908   717   792    1
  2909  1578  1659    1
  2910  1578  1657    1
  2911  1578  1647    1
  2912  2433  2510    1
  2913  2433  2512    1
  2914  2433  2508    1
  2915  3294  3375    1
  2916  3294  3373    1
  2917  3294  3363    1
  2918   288   365    1
  2919   288   367    1
  2920   288   363    1
  2921  2004  2081    1
  2922  2004  2083    1
  2923  2004  2079    1
  2924  2865  2946    1
  2925  2865  2944    1
  2926  2865  2934    1
  2927  3720  3797    1
  2928  3720  3799    1
  2929  3720  3795    1
  2930  1575  1652    1
  2931  1575  1654    1
  2932  1575  1650    1
  2933  3291  3368    1
  2934  3291  3370    1
  2935  3291  3366    1
  2936  2862  2939    1
  2937  2862  2941    1
  2938  2862  2937    1
  2939  1169  1239    1
  2940   740   810    1
  2941  1230  1148    1
  2942  2456  2526    1
  2943   311   381    1
  2944   801   719    1
  2945  2027  2097    1
  2946  2517  2435    1
  2947  3743  3813    1
  2948   372   290    1
  2949  1598  1668    1
  2950  1223  1152    1
  2951  2088  2006    1
  2952  3314  3384    1
  2953  1211  1167    1
  2954  3804  3722    1
  2955   794   723    1
  2956  1659  1577    1
  2957   996   988    1
  2958  2885  2955    1
  2959   782   738    1
  2960   782  1168    1
  2961  2510  2439    1
  2962  3375  3293    1
  2963  2498  2454    1
  2964   365   294    1
  2965   567   559    1
  2966   353   309    1
  2967   353   739    1
  2968  2081  2010    1
  2969  2946  2864    1
  2970  2283  2275    1
  2971  2069  2025    1
  2972  2069  2455    1
  2973  3797  3726    1
  2974   138   130    1
  2975  3785  3741    1
  2976  1652  1581    1
  2977  1854  1846    1
  2978  1640  1596    1
  2979  1640  2026    1
  2980   988   994    1
  2981   988   999    1
  2982  3368  3297    1
  2983  3570  3562    1
  2984  3356  3312    1
  2985  3356  3742    1
  2986  1425  1417    1
  2987   559   565    1
  2988   559   570    1
  2989  2939  2868    1
  2990  3141  3133    1
  2991  2927  2883    1
  2992  2927  3313    1
  2993  2275  2281    1
  2994  2275  2286    1
  2995   130   136    1
  2996   130   141    1
  2997  2712  2704    1
  2998  1846  1852    1
  2999  1846  1857    1
  3000  1228  1148    1
  3001  3562  3568    1
  3002  3562  3573    1
  3003  1417  1423    1
  3004  1417  1428    1
  3005   799   719    1
  3006  1225  1152    1
  3007  3133  3139    1
  3008  3133  3144    1
  3009  2515  2435    1
  3010   370   290    1
  3011  1239  1152    1
  3012   796   723    1
  3013  2704  2710    1
  3014  2704  2715    1
  3015  2086  2006    1
  3016  2512  2439    1
  3017   810   723    1
  3018  3802  3722    1
  3019   367   294    1
  3020  1657  1577    1
  3021  2526  2439    1
  3022  2083  2010    1
  3023   381   294    1
  3024  3373  3293    1
  3025  3799  3726    1
  3026  2097  2010    1
  3027  1654  1581    1
  3028  2944  2864    1
  3029  3813  3726    1
  3030  3370  3297    1
  3031  1668  1581    1
  3032  3384  3297    1
  3033  2941  2868    1
  3034  2955  2868    1
  3035  1218  1180    1
  3036   789   751    1
  3037  2505  2467    1
  3038   360   322    1
  3039  1221  1177    1
  3040  2076  2038    1
  3041   792   748    1
  3042  3792  3754    1
  3043  1647  1609    1
  3044  2508  2464    1
  3045   363   319    1
  3046  3363  3325    1
  3047  1148  1219    1
  3048  1148  1268    1
  3049  2079  2035    1
  3050  2934  2896    1
  3051   719   790    1
  3052   719   839    1
  3053  3795  3751    1
  3054  1152  1215    1
  3055  1152  1265    1
  3056  1650  1606    1
  3057  2435  2506    1
  3058  2435  2555    1
  3059   290   361    1
  3060   290   410    1
  3061  3366  3322    1
  3062   723   786    1
  3063   723   836    1
  3064  2006  2077    1
  3065  2006  2126    1
  3066  2439  2502    1
  3067  2439  2552    1
  3068  2937  2893    1
  3069  3722  3793    1
  3070  3722  3842    1
  3071   294   357    1
  3072   294   407    1
  3073  1577  1648    1
  3074  1577  1697    1
  3075  2010  2073    1
  3076  2010  2123    1
  3077  3293  3364    1
  3078  3293  3413    1
  3079  3726  3789    1
  3080  3726  3839    1
  3081  1581  1644    1
  3082  1581  1694    1
  3083  2864  2935    1
  3084  2864  2984    1
  3085  3297  3360    1
  3086  3297  3410    1
  3087  1251  1255    1
  3088  2868  2931    1
  3089  2868  2981    1
  3090   822   826    1
  3091  2538  2542    1
  3092  1166  1188    1
  3093   393   397    1
  3094  2109  2113    1
  3095   737   759    1
  3096  1164  1191    1
  3097  3825  3829    1
  3098  2453  2475    1
  3099  1680  1684    1
  3100   308   330    1
  3101   735   762    1
  3102  3396  3400    1
  3103  2024  2046    1
  3104  2451  2478    1
  3105  3740  3762    1
  3106   306   333    1
  3107  2967  2971    1
  3108  1595  1617    1
  3109  2022  2049    1
  3110  3311  3333    1
  3111  3738  3765    1
  3112  1593  1620    1
  3113  2882  2904    1
  3114  3309  3336    1
  3115  2880  2907    1
  3116  1180  1219    1
  3117  1180  1184    1
  3118  2539  1261    1
  3119   751   790    1
  3120   751   755    1
  3121  2467  2506    1
  3122  2467  2471    1
  3123  2110   832    1
  3124  1255  1261    1
  3125  1255  1259    2
  3126   322   361    1
  3127   322   326    1
  3128  3826  2548    1
  3129  1177  1215    1
  3130  1177  1181    1
  3131  2038  2077    1
  3132  2038  2042    1
  3133  1681   403    1
  3134   826   832   ar
  3135   826   830   ar
  3136  3754  3793    1
  3137  3754  3758    1
  3138  3397  2119    1
  3139   748   786    1
  3140   748   752    1
  3141  2542  2548    1
  3142  2542  2546    2
  3143  1609  1648    1
  3144  1609  1613    1
  3145  2464  2502    1
  3146  2464  2468    1
  3147   397   403   ar
  3148   397   401   ar
  3149  3325  3364    1
  3150  3325  3329    1
  3151  2968  1690    1
  3152   319   357    1
  3153   319   323    1
  3154  2113  2119   ar
  3155  2113  2117   ar
  3156  2035  2073    1
  3157  2035  2039    1
  3158  3829  3835    1
  3159  3829  3833    2
  3160  2896  2935    1
  3161  2896  2900    1
  3162  3751  3789    1
  3163  3751  3755    2
  3164  1684  1690   ar
  3165  1684  1688   ar
  3166  1606  1644    1
  3167  1606  1610    1
  3168  3400  3406    1
  3169  3400  3404    2
  3170  3322  3360    1
  3171  3322  3326    2
  3172  1245  1259    1
  3173  2971  2977    1
  3174  2971  2975    2
  3175  2893  2931    1
  3176  2893  2897    2
  3177   816   830    1
  3178  2532  2546    1
  3179  1268  1197    1
  3180   387   401    1
  3181   832  2547   ar
  3182  2103  2117    1
  3183   839   768    1
  3184  1188  1184    1
  3185  3819  3833    1
  3186  2555  2484    1
  3187   403  2118   ar
  3188  1674  1688    1
  3189   410   339    1
  3190   759   755   ar
  3191   759  1190   ar
  3192  2119  3834   ar
  3193  3390  3404    1
  3194  2126  2055    1
  3195  2475  2471    1
  3196  1265  1197    1
  3197  1191  1181   ar
  3198  1191  2473   ar
  3199  3842  3771    1
  3200   330   326   ar
  3201   330   761   ar
  3202  1690  3405   ar
  3203  2961  2975    1
  3204  1697  1626    1
  3205  2046  2042   ar
  3206  2046  2477   ar
  3207   836   768    1
  3208   762   752   ar
  3209   762  2044   ar
  3210  3413  3342    1
  3211   830  2549   ar
  3212  3762  3758    1
  3213  2552  2484    1
  3214  2478  2468   ar
  3215  2478  3760   ar
  3216  1617  1613   ar
  3217  1617  2048   ar
  3218   407   339    1
  3219   333   323   ar
  3220   333  1615   ar
  3221  2984  2913    1
  3222   401  2120   ar
  3223  3333  3329   ar
  3224  3333  3764   ar
  3225  2123  2055    1
  3226  2049  2039   ar
  3227  2049  3331   ar
  3228  2117  3836   ar
  3229  3839  3771    1
  3230  3765  3755    1
  3231  2904  2900   ar
  3232  2904  3335   ar
  3233  1694  1626    1
  3234  1620  1610   ar
  3235  1620  2902   ar
  3236  1688  3407   ar
  3237  3410  3342    1
  3238  3336  3326    1
  3239  2981  2913    1
  3240  2907  2897    1
  3241  1184  1189    2
  3242  1197  1253    1
  3243  1165  1186    1
  3244   755   760   ar
  3245   768   824    1
  3246  2471  2476    2
  3247  2484  2540    1
  3248   736   757    1
  3249   326   331   ar
  3250   339   395    1
  3251  1181  1185   ar
  3252  2452  2473    1
  3253  2042  2047   ar
  3254  2055  2111    1
  3255   307   328    1
  3256  3758  3763    2
  3257   752   756   ar
  3258  3771  3827    1
  3259  2023  2044    1
  3260  1613  1618   ar
  3261  1626  1682    1
  3262  2468  2472   ar
  3263  3739  3760    1
  3264  3329  3334   ar
  3265   323   327   ar
  3266  3342  3398    1
  3267  1594  1615    1
  3268  1161  1190    1
  3269  2039  2043   ar
  3270  3310  3331    1
  3271  2900  2905   ar
  3272  2913  2969    1
  3273  3755  3759    1
  3274   732   761    1
  3275  1610  1614   ar
  3276  2881  2902    1
  3277  2448  2477    1
  3278  3326  3330    1
  3279   303   332    1
  3280  1260  1244    1
  3281  1260  1256    1
  3282  2019  2048    1
  3283  2897  2901    1
  3284  1186  1182    1
  3285   831   815    1
  3286   831   827    1
  3287  3735  3764    1
  3288  1590  1619    1
  3289  2547  2531    1
  3290  2547  2543   ar
  3291   757   753    1
  3292   402   386    1
  3293   402   398    1
  3294  3306  3335    1
  3295  2473  2469   ar
  3296  2118  2102    1
  3297  2118  2114   ar
  3298   328   324    1
  3299  2877  2906    1
  3300  3834  3818    1
  3301  3834  3830   ar
  3302  1262  1256    1
  3303  1262  1248    1
  3304  1190  1183   ar
  3305  2044  2040   ar
  3306  1689  1673    1
  3307  1689  1685    1
  3308  3760  3756   ar
  3309  3405  3389    1
  3310  3405  3401   ar
  3311   833   827    1
  3312   833   819    1
  3313   761   754   ar
  3314  1615  1611   ar
  3315  2549  2543   ar
  3316  2549  2535    1
  3317  2477  2470   ar
  3318  3331  3327   ar
  3319  2976  2960    1
  3320  2976  2972    1
  3321   404   398    1
  3322   404   390    1
  3323   332   325    1
  3324  2120  2114   ar
  3325  2120  2106    1
  3326  2048  2041   ar
  3327  2902  2898   ar
  3328  3836  3830   ar
  3329  3836  3822    1
  3330  3764  3757   ar
  3331  1691  1685    1
  3332  1691  1677    1
  3333  1619  1612    1
  3334  3407  3401   ar
  3335  3407  3393    1
  3336  3335  3328   ar
  3337  2978  2972    1
  3338  2978  2964    1
  3339  2906  2899    1
  3340  1256  1198    2
  3341   827   769    2
  3342  2543  2485    1
  3343   398   340    2
  3344  1250  1257    1
  3345  1253  1257   ar
  3346  1253  1263   ar
  3347  2114  2056    1
  3348  3830  3772    1
  3349   821   828    1
  3350   824   828   ar
  3351   824   834   ar
  3352  1685  1627    2
  3353  2537  2544    1
  3354  2540  2544   ar
  3355  2540  2550   ar
  3356  3401  3343    1
  3357   392   399    1
  3358   395   399   ar
  3359   395   405   ar
  3360  2108  2115    1
  3361  2111  2115   ar
  3362  2111  2121   ar
  3363  2972  2914    2
  3364  3824  3831    1
  3365  3827  3831   ar
  3366  3827  3837   ar
  3367  1679  1686    1
  3368  1682  1686   ar
  3369  1682  1692   ar
  3370  1246  1263    1
  3371  3395  3402    1
  3372  3398  3402   ar
  3373  3398  3408   ar
  3374   817   834    1
  3375  2966  2973    1
  3376  1189  1162    1
  3377  2969  2973   ar
  3378  2969  2979   ar
  3379  2533  2550    1
  3380   388   405    1
  3381   760   733    1
  3382   760  1187   ar
  3383  2104  2121    1
  3384  1174  1213    1
  3385  2476  2449    1
  3386  3820  3837    1
  3387   331   304    1
  3388   331   758   ar
  3389  1675  1692    1
  3390   745   784    1
  3391  2047  2020    1
  3392  2047  2474   ar
  3393  1257  1264   ar
  3394  3391  3408    1
  3395  2461  2500    1
  3396  3763  3736    1
  3397  1185  1213    1
  3398  1185  2479   ar
  3399   316   355    1
  3400  1618  1591    1
  3401  1618  2045   ar
  3402   828   835   ar
  3403  2962  2979    1
  3404  2032  2071    1
  3405  3334  3307    1
  3406  3334  3761   ar
  3407   756   784    1
  3408   756  2050   ar
  3409  2544  2551   ar
  3410   399   406   ar
  3411  3748  3787    1
  3412  2472  2500    1
  3413  2472  3766   ar
  3414  1263  1258   ar
  3415  1603  1642    1
  3416  2905  2878    1
  3417  2905  3332   ar
  3418   327   355    1
  3419   327  1621   ar
  3420  2115  2122   ar
  3421  3319  3358    1
  3422  2043  2071    1
  3423  2043  3337   ar
  3424  3831  3838   ar
  3425   834   829   ar
  3426  1686  1693   ar
  3427  3759  3787    1
  3428  2550  2545   ar
  3429  2890  2929    1
  3430  1614  1642    1
  3431  1614  2908   ar
  3432  3402  3409   ar
  3433   405   400   ar
  3434  3330  3358    1
  3435  2121  2116   ar
  3436  2973  2980   ar
  3437  1182  1192    2
  3438  1182  1178    1
  3439  3837  3832   ar
  3440  2901  2929    1
  3441  1692  1687   ar
  3442   753   763    2
  3443   753   749    1
  3444  3408  3403   ar
  3445  2469  2479   ar
  3446  2469  2465    1
  3447   324   334    2
  3448   324   320    1
  3449  1198  1266    1
  3450  1198  1267    1
  3451  2979  2974   ar
  3452  1183  1187   ar
  3453  1183  1179    1
  3454  2040  2050   ar
  3455  2040  2036    1
  3456   769   837    1
  3457   769   838    1
  3458  3756  3766   ar
  3459  3756  3752    1
  3460   754   758   ar
  3461   754   750    1
  3462  1611  1621   ar
  3463  1611  1607    1
  3464  2485  2553    1
  3465  2485  2554    1
  3466  2470  2474   ar
  3467  2470  2466    1
  3468   340   408    1
  3469   340   409    1
  3470  3327  3337   ar
  3471  3327  3323    1
  3472   325   329    2
  3473   325   321    1
  3474  1213  1173    1
  3475  2056  2124    1
  3476  2056  2125    1
  3477  2041  2045   ar
  3478  2041  2037    1
  3479  2898  2908   ar
  3480  2898  2894    1
  3481  3772  3840    1
  3482  3772  3841    1
  3483  3757  3761   ar
  3484  3757  3753    1
  3485   784   744    1
  3486  1627  1695    1
  3487  1627  1696    1
  3488  1612  1616    2
  3489  1612  1608    1
  3490  2500  2460    1
  3491  3343  3411    1
  3492  3343  3412    1
  3493  3328  3332   ar
  3494  3328  3324    1
  3495   355   315    1
  3496  2071  2031    1
  3497  2914  2982    1
  3498  2914  2983    1
  3499  2899  2903    2
  3500  2899  2895    1
  3501  3787  3747    1
  3502  1642  1602    1
  3503  3358  3318    1
  3504  1192  1163    1
  3505  1266  1151    1
  3506  1267  1147    1
  3507  2929  2889    1
  3508   763   734    1
  3509   837   722    1
  3510  1216  1178    1
  3511  1216  1151    1
  3512  1187  1214    1
  3513  2479  2450    1
  3514  2553  2438    1
  3515   838   718    1
  3516   334   305    1
  3517   408   293    1
  3518   787   749    1
  3519   787   722    1
  3520  2554  2434    1
  3521   758   785    1
  3522  2050  2021    1
  3523  2124  2009    1
  3524   409   289    1
  3525  2503  2465    1
  3526  2503  2438    1
  3527  1220  1179    1
  3528  1220  1147    1
  3529  2474  2501    1
  3530  3766  3737    1
  3531  3840  3725    1
  3532  1264  1247    1
  3533  1264  1254   ar
  3534   358   320    1
  3535   358   293    1
  3536  2125  2005    1
  3537   329   356    1
  3538  1621  1592    1
  3539  1695  1580    1
  3540  2074  2036    1
  3541  2074  2009    1
  3542  3841  3721    1
  3543   791   750    1
  3544   791   718    1
  3545  2045  2072    1
  3546  3337  3308    1
  3547  3411  3296    1
  3548   835   818    1
  3549   835   825   ar
  3550  1696  1576    1
  3551  3790  3752    1
  3552  3790  3725    1
  3553  2507  2466    1
  3554  2507  2434    1
  3555  3761  3788    1
  3556  2551  2534    1
  3557  2551  2541   ar
  3558  1645  1607    1
  3559  1645  1580    1
  3560  3412  3292    1
  3561   362   321    1
  3562   362   289    1
  3563  1616  1643    1
  3564  2908  2879    1
  3565  2982  2867    1
  3566   406   389    1
  3567   406   396   ar
  3568  3361  3323    1
  3569  3361  3296    1
  3570  1258  1254   ar
  3571  1258  1243    1
  3572  2078  2037    1
  3573  2078  2005    1
  3574  3332  3359    1
  3575  2122  2105    1
  3576  2122  2112   ar
  3577  2983  2863    1
  3578  3794  3753    1
  3579  3794  3721    1
  3580  3838  3821    1
  3581  3838  3828   ar
  3582  2932  2894    1
  3583  2932  2867    1
  3584   829   825   ar
  3585   829   814    1
  3586  1649  1608    1
  3587  1649  1576    1
  3588  2903  2930    1
  3589  1693  1676    1
  3590  1693  1683   ar
  3591  2545  2541   ar
  3592  2545  2530    1
  3593  3365  3324    1
  3594  3365  3292    1
  3595  3409  3392    1
  3596  3409  3399   ar
  3597   400   396   ar
  3598   400   385    1
  3599  2116  2112   ar
  3600  2116  2101    1
  3601  2936  2895    1
  3602  2936  2863    1
  3603  1178  1222    1
  3604  2980  2963    1
  3605  2980  2970   ar
  3606  3832  3828   ar
  3607  3832  3817    1
  3608  1687  1683   ar
  3609  1687  1672    1
  3610   749   793    1
  3611  3403  3399   ar
  3612  3403  3388    1
  3613  2465  2509    1
  3614  1179  1217    1
  3615   320   364    1
  3616  2974  2970   ar
  3617  2974  2959    1
  3618  2036  2080    1
  3619   750   788    1
  3620  3752  3796    1
  3621  2466  2504    1
  3622  1607  1651    1
  3623   321   359    1
  3624  3323  3367    1
  3625  2037  2075    1
  3626  1254  1249    1
  3627  3753  3791    1
  3628  2894  2938    1
  3629  1608  1646    1
  3630   825   820    1
  3631  3324  3362    1
  3632  2541  2536    1
  3633   396   391    1
  3634  2895  2933    1
  3635  2112  2107    1
  3636  3828  3823    1
  3637  1683  1678    1
  3638  3399  3394    1
  3639  2970  2965    1
  3640  1214  1175    1
  3641  1214  1176    1
  3642  1151  1240    1
  3643  1151  1224    1
  3644  1151  1226    1
  3645   785   746    1
  3646   785   747    1
  3647   722   811    1
  3648   722   795    1
  3649   722   797    1
  3650  2501  2462    1
  3651  2501  2463    1
  3652  1147  1229    1
  3653  1147  1227    1
  3654   356   317    1
  3655   356   318    1
  3656  2438  2527    1
  3657  2438  2511    1
  3658  2438  2513    1
  3659   293   382    1
  3660   293   366    1
  3661   293   368    1
  3662  2072  2033    1
  3663  2072  2034    1
  3664   718   800    1
  3665   718   798    1
  3666  2009  2098    1
  3667  2009  2082    1
  3668  2009  2084    1
  3669  3788  3749    1
  3670  3788  3750    1
  3671  2434  2516    1
  3672  2434  2514    1
  3673  1643  1604    1
  3674  1643  1605    1
  3675  3725  3814    1
  3676  3725  3798    1
  3677  3725  3800    1
  3678   289   371    1
  3679   289   369    1
  3680  1580  1669    1
  3681  1580  1653    1
  3682  1580  1655    1
  3683  3359  3320    1
  3684  3359  3321    1
  3685  2005  2087    1
  3686  2005  2085    1
  3687  3296  3385    1
  3688  3296  3369    1
  3689  3296  3371    1
  3690  1222  1145    1
  3691  3721  3803    1
  3692  3721  3801    1
  3693  2930  2891    1
  3694  2930  2892    1
  3695  1576  1658    1
  3696  1576  1656    1
  3697  2867  2956    1
  3698  2867  2940    1
  3699  2867  2942    1
  3700   793   716    1
  3701  3292  3374    1
  3702  3292  3372    1
  3703  2509  2432    1
  3704   364   287    1
  3705  2863  2945    1
  3706  2863  2943    1
  3707  1217  1150    1
  3708  2080  2003    1
  3709  1171  1212    1
  3710  3796  3719    1
  3711   788   721    1
  3712  1651  1574    1
  3713  2504  2437    1
  3714   742   783    1
  3715  3367  3290    1
  3716   359   292    1
  3717  2458  2499    1
  3718  2075  2008    1
  3719   313   354    1
  3720  2938  2861    1
  3721  3791  3724    1
  3722  2029  2070    1
  3723  1646  1579    1
  3724  3745  3786    1
  3725  3362  3295    1
  3726  1600  1641    1
  3727  3316  3357    1
  3728  2933  2866    1
  3729  1240  1170    1
  3730  2887  2928    1
  3731   811   741    1
  3732  1224  1145    1
  3733  2527  2457    1
  3734   382   312    1
  3735   795   716    1
  3736  2098  2028    1
  3737  2511  2432    1
  3738  3814  3744    1
  3739   366   287    1
  3740  1669  1599    1
  3741  1229  1150    1
  3742  2082  2003    1
  3743  3385  3315    1
  3744  3798  3719    1
  3745   800   721    1
  3746  1653  1574    1
  3747  2956  2886    1
  3748  2516  2437    1
  3749  3369  3290    1
  3750   371   292    1
  3751  2087  2008    1
  3752  2940  2861    1
  3753  3803  3724    1
  3754  1658  1579    1
  3755  3374  3295    1
  3756  2945  2866    1
  3757  1172  1212    1
  3758  1212  1207    1
  3759   743   783    1
  3760  1226  1145    1
  3761  2459  2499    1
  3762   783   778    1
  3763   314   354    1
  3764  2499  2494    1
  3765   797   716    1
  3766  2030  2070    1
  3767   354   349    1
  3768  2513  2432    1
  3769  1227  1150    1
  3770  3746  3786    1
  3771  2070  2065    1
  3772   368   287    1
  3773  1601  1641    1
  3774  3786  3781    1
  3775  2084  2003    1
  3776   798   721    1
  3777  3317  3357    1
  3778  1641  1636    1
  3779  3800  3719    1
  3780  2514  2437    1
  3781  3357  3352    1
  3782  1655  1574    1
  3783   369   292    1
  3784  2888  2928    1
  3785  3371  3290    1
  3786  2085  2008    1
  3787  2928  2923    1
  3788  1155  1206    1
  3789  3801  3724    1
  3790  2942  2861    1
  3791  1656  1579    1
  3792   726   777    1
  3793  3372  3295    1
  3794  2442  2493    1
  3795   297   348    1
  3796  2943  2866    1
  3797  1157  1209    1
  3798  2013  2064    1
  3799  1153  1204    1
  3800  3729  3780    1
  3801   728   780    1
  3802  1584  1635    1
  3803  2444  2496    1
  3804   724   775    1
  3805  3300  3351    1
  3806   299   351    1
  3807  2440  2491    1
  3808  2015  2067    1
  3809   295   346    1
  3810  2871  2922    1
  3811  3731  3783    1
  3812  2011  2062    1
  3813  1586  1638    1
  3814  3727  3778    1
  3815  3302  3354    1
  3816  1582  1633    1
  3817  1145  1236    1
  3818  1145  1238    1
  3819  3298  3349    1
  3820  2873  2925    1
  3821   716   807    1
  3822   716   809    1
  3823  2869  2920    1
  3824  2432  2523    1
  3825  2432  2525    1
  3826   287   378    1
  3827   287   380    1
  3828  1150  1233    1
  3829  1150  1231    1
  3830  2003  2094    1
  3831  2003  2096    1
  3832  3719  3810    1
  3833  3719  3812    1
  3834   721   804    1
  3835   721   802    1
  3836  1574  1665    1
  3837  1574  1667    1
  3838  2437  2520    1
  3839  2437  2518    1
  3840  3290  3381    1
  3841  3290  3383    1
  3842   292   375    1
  3843   292   373    1
  3844  2008  2091    1
  3845  2008  2089    1
  3846  2861  2952    1
  3847  2861  2954    1
  3848  1135  1129    1
  3849  3724  3807    1
  3850  3724  3805    1
  3851  1579  1662    1
  3852  1579  1660    1
  3853   706   700    1
  3854  3295  3378    1
  3855  3295  3376    1
  3856  2422  2416    1
  3857   277   271    1
  3858  2866  2949    1
  3859  2866  2947    1
  3860  1993  1987    1
  3861  3709  3703    1
  3862  1564  1558    1
  3863  3280  3274    1
  3864  1207  2493    2
  3865  2851  2845    1
  3866   778  2064    2
  3867  2494  3780    2
  3868   349  1635    2
  3869  2065  3351    2
  3870  1209   775    2
  3871  1141  1133    1
  3872  1636  2922    2
  3873   780   346    2
  3874   712   704    1
  3875  2496  2062    2
  3876  2428  2420    1
  3877   283   275    1
  3878  2067  1633    2
  3879  1999  1991    1
  3880  3783  3349    2
  3881  3715  3707    1
  3882  1570  1562    1
  3883  3354  2920    2
  3884  3286  3278    1
  3885  2857  2849    1
  3886  1136  1130    1
  3887   707   701    1
  3888  2423  2417    1
  3889   278   272    1
  3890  1994  1988    1
  3891  3710  3704    1
  3892  1565  1559    1
  3893  1129  1127    1
  3894  1129  1128    2
  3895  3281  3275    1
  3896   700   698    1
  3897   700   699    2
  3898  2852  2846    1
  3899  2416  2414    1
  3900  2416  2415    2
  3901  1140  1130    1
  3902   271   269    1
  3903   271   270    2
  3904  1987  1985    1
  3905  1987  1986    2
  3906   711   701    1
  3907  3703  3701    1
  3908  3703  3702    2
  3909  2427  2417    1
  3910  1558  1556    1
  3911  1558  1557    2
  3912   282   272    1
  3913  3274  3272    1
  3914  3274  3273    2
  3915  1998  1988    1
  3916  3714  3704    1
  3917  2845  2843    1
  3918  2845  2844    2
  3919  1569  1559    1
  3920  3285  3275    1
  3921  1133  1130    1
  3922  1133  1127    1
  3923  1133  1144    1
  3924  2856  2846    1
  3925   704   701    1
  3926   704   698    1
  3927   704   715    1
  3928  1130  1138    1
  3929  2420  2417    1
  3930  2420  2414    1
  3931  2420  2431    1
  3932   275   272    1
  3933   275   269    1
  3934   275   286    1
  3935   701   709    1
  3936  1991  1988    1
  3937  1991  1985    1
  3938  1991  2002    1
  3939  2417  2425    1
  3940   272   280    1
  3941  3707  3704    1
  3942  3707  3701    1
  3943  3707  3718    1
  3944  1562  1559    1
  3945  1562  1556    1
  3946  1562  1573    1
  3947  1988  1996    1
  3948  1134  1128    1
  3949  3278  3275    1
  3950  3278  3272    1
  3951  3278  3289    1
  3952  3704  3712    1
  3953  1559  1567    1
  3954   705   699    1
  3955  2849  2846    1
  3956  2849  2843    1
  3957  2849  2860    1
  3958  3275  3283    1
  3959  2421  2415    1
  3960   276   270    1
  3961  2846  2854    1
  3962  1992  1986    1
  3963  3708  3702    1
  3964  1563  1557    1
  3965  1127  1132    1
  3966  1128  1126    1
  3967  3279  3273    1
  3968   698   703    1
  3969   699   697    1
  3970  2850  2844    1
  3971  2414  2419    1
  3972  2415  2413    1
  3973   269   274    1
  3974   270   268    1
  3975  1985  1990    1
  3976  1986  1984    1
  3977  3701  3706    1
  3978  3702  3700    1
  3979  1556  1561    1
  3980  1557  1555    1
  3981  3272  3277    1
  3982  3273  3271    1
  3983  2843  2848    1
  3984  2844  2842    1
  3985  1132  1126    1
  3986  1132  1143    1
  3987  1126  1131    1
  3988   703   697    1
  3989   703   714    1
  3990   697   702    1
  3991  2419  2413    1
  3992  2419  2430    1
  3993   274   268    1
  3994   274   285    1
  3995  2413  2418    1
  3996   268   273    1
  3997  1990  1984    1
  3998  1990  2001    1
  3999  1984  1989    1
  4000  3706  3700    1
  4001  3706  3717    1
  4002  1561  1555    1
  4003  1561  1572    1
  4004  3700  3705    1
  4005  1555  1560    1
  4006  3277  3271    1
  4007  3277  3288    1
  4008  3271  3276    1
  4009  2848  2842    1
  4010  2848  2859    1
  4011  2842  2847    1
  4012  1139  1131    1
  4013   710   702    1
  4014  2426  2418    1
  4015   281   273    1
  4016  1997  1989    1
  4017  1131  1137    1
  4018  1131  1142    1
  4019  3713  3705    1
  4020  1568  1560    1
  4021   702   708    1
  4022   702   713    1
  4023  3284  3276    1
  4024  2418  2424    1
  4025  2418  2429    1
  4026   273   279    1
  4027   273   284    1
  4028  2855  2847    1
  4029  1989  1995    1
  4030  1989  2000    1
  4031  3705  3711    1
  4032  3705  3716    1
  4033  1560  1566    1
  4034  1560  1571    1
  4035  3276  3282    1
  4036  3276  3287    1
  4037  2847  2853    1
  4038  2847  2858    1
  4039  1278  1272    1
  4040   849   843    1
  4041  2565  2559    1
  4042   420   414    1
  4043  2136  2130    1
  4044  3852  3846    1
  4045  1707  1701    1
  4046  3423  3417    1
  4047  2994  2988    1
  4048  1284  1276    1
  4049   855   847    1
  4050  2571  2563    1
  4051   426   418    1
  4052  2142  2134    1
  4053  3858  3850    1
  4054  1713  1705    1
  4055  3429  3421    1
  4056  3000  2992    1
  4057  1279  1273    1
  4058   850   844    1
  4059  2566  2560    1
  4060   421   415    1
  4061  2137  2131    1
  4062  3853  3847    1
  4063  1708  1702    1
  4064  1272  1270    1
  4065  1272  1271    2
  4066  3424  3418    1
  4067   843   841    1
  4068   843   842    2
  4069  2995  2989    1
  4070  2559  2557    1
  4071  2559  2558    2
  4072  1283  1273    1
  4073   414   412    1
  4074   414   413    2
  4075  2130  2128    1
  4076  2130  2129    2
  4077   854   844    1
  4078  3846  3844    1
  4079  3846  3845    2
  4080  2570  2560    1
  4081  1701  1699    1
  4082  1701  1700    2
  4083   425   415    1
  4084  3417  3415    1
  4085  3417  3416    2
  4086  2141  2131    1
  4087  3857  3847    1
  4088  2988  2986    1
  4089  2988  2987    2
  4090  1712  1702    1
  4091  3428  3418    1
  4092  1276  1273    1
  4093  1276  1270    1
  4094  1276  1287    1
  4095  2999  2989    1
  4096   847   844    1
  4097   847   841    1
  4098   847   858    1
  4099  1273  1281    1
  4100  2563  2560    1
  4101  2563  2557    1
  4102  2563  2574    1
  4103   418   415    1
  4104   418   412    1
  4105   418   429    1
  4106   844   852    1
  4107  2134  2131    1
  4108  2134  2128    1
  4109  2134  2145    1
  4110  2560  2568    1
  4111   415   423    1
  4112  3850  3847    1
  4113  3850  3844    1
  4114  3850  3861    1
  4115  1705  1702    1
  4116  1705  1699    1
  4117  1705  1716    1
  4118  2131  2139    1
  4119  1277  1271    1
  4120  3421  3418    1
  4121  3421  3415    1
  4122  3421  3432    1
  4123  3847  3855    1
  4124  1702  1710    1
  4125   848   842    1
  4126  2992  2989    1
  4127  2992  2986    1
  4128  2992  3003    1
  4129  3418  3426    1
  4130  2564  2558    1
  4131   419   413    1
  4132  2989  2997    1
  4133  2135  2129    1
  4134  3851  3845    1
  4135  1706  1700    1
  4136  1270  1275    1
  4137  1271  1269    1
  4138  3422  3416    1
  4139   841   846    1
  4140   842   840    1
  4141  2993  2987    1
  4142  2557  2562    1
  4143  2558  2556    1
  4144   412   417    1
  4145   413   411    1
  4146  2128  2133    1
  4147  2129  2127    1
  4148  3844  3849    1
  4149  3845  3843    1
  4150  1699  1704    1
  4151  1700  1698    1
  4152  3415  3420    1
  4153  3416  3414    1
  4154  2986  2991    1
  4155  2987  2985    1
  4156  1275  1269    1
  4157  1275  1286    1
  4158  1269  1274    1
  4159   846   840    1
  4160   846   857    1
  4161   840   845    1
  4162  2562  2556    1
  4163  2562  2573    1
  4164   417   411    1
  4165   417   428    1
  4166  2556  2561    1
  4167   411   416    1
  4168  2133  2127    1
  4169  2133  2144    1
  4170  2127  2132    1
  4171  3849  3843    1
  4172  3849  3860    1
  4173  1704  1698    1
  4174  1704  1715    1
  4175  3843  3848    1
  4176  1698  1703    1
  4177  3420  3414    1
  4178  3420  3431    1
  4179  3414  3419    1
  4180  2991  2985    1
  4181  2991  3002    1
  4182  2985  2990    1
  4183  1282  1274    1
  4184   853   845    1
  4185  2569  2561    1
  4186   424   416    1
  4187  2140  2132    1
  4188  1274  1280    1
  4189  1274  1285    1
  4190  3856  3848    1
  4191  1711  1703    1
  4192   845   851    1
  4193   845   856    1
  4194  3427  3419    1
  4195  2561  2567    1
  4196  2561  2572    1
  4197   416   422    1
  4198   416   427    1
  4199  2998  2990    1
  4200  2132  2138    1
  4201  2132  2143    1
  4202  3848  3854    1
  4203  3848  3859    1
  4204  1703  1709    1
  4205  1703  1714    1
  4206  3419  3425    1
  4207  3419  3430    1
  4208  2990  2996    1
  4209  2990  3001    1
