@<TRIPOS>MOLECULE
Lattice="32.018782 0.0 0.0 -14.043870532898428 28.753623292648026 0.0 -8.625062807759862 -14.478403582935226 26.22054754850901" Properties=species:S:1:pos:R:3 i=257 E=-1376.2735369799 pbc="T T T"
 200 164 0 0 0
SMALL
GASTEIGER

@<TRIPOS>ATOM
      1 N           2.2579    4.3419   11.8744 N.3     1  UNL1       -0.2786
      2 N           1.4645    2.6270   12.9632 N.3     1  UNL1       -0.2817
      3 C          -6.4357   -8.9038   10.8863 C.3     1  UNL1       -0.0348
      4 C          -4.9577   -8.7715   11.2761 C.3     1  UNL1       -0.0494
      5 C         -10.6481    4.5531   11.0785 C.3     2  UNL2       -0.0559
      6 C           2.2748    2.9984   11.9563 C.3     1  UNL1        0.0939
      7 C           7.9282   -9.7803   12.9149 C.3     3  UNL3       -0.0309
      8 C           0.9123    3.7562   13.5437 C.3     1  UNL1        0.0458
      9 C          -4.5197   11.8559   -1.7507 C.3     4  UNL4       -0.0681
     10 C           1.2331    1.2423   13.3723 C.3     1  UNL1       -0.0109
     11 H         -13.0664    5.2433    9.8417 H       2  UNL2        0.0265
     12 H          -6.9253   -7.9236   10.8503 H       1  UNL1        0.0306
     13 H          -0.2436   -1.3058   -0.7969 H       5  UNK5        0.0000
     14 H          -4.5353   -7.9976   10.6154 H       1  UNL1        0.0268
     15 H         -11.0107    3.7848   11.7772 H       2  UNL2        0.0263
     16 H         -10.7939    4.1376   10.0699 H       2  UNL2        0.0263
     17 H           2.8315    2.3236   11.3193 H       1  UNL1        0.0662
     18 H          -3.6275   -1.0978   -0.1517 H       6  UNK6        0.0000
     19 H           0.2110    3.6893   14.3680 H       1  UNL1        0.0495
     20 H          -4.3431   12.2083   -0.7250 H       3  UNL3        0.0227
     21 H          -4.1079   12.6246   -2.4210 H       3  UNL3        0.0227
     22 H          -3.9404   10.9304   -1.8792 H       3  UNL3        0.0227
     23 H           0.1492    1.0807   13.4421 H       1  UNL1        0.0391
     24 H           1.6657    0.5701   12.6252 H       1  UNL1        0.0391
     25 H           1.7388    1.0483   14.3287 H       1  UNL1        0.0391
     26 N          -2.0547   -2.8973   24.9846 N.3     7  UNL7       -0.2735
     27 N          -2.8481   -4.6122   26.0734 N.3     7  UNL7       -0.2813
     28 C         -10.7482  -16.1430   23.9966 C.3     4  UNL4       -0.0309
     29 C          -9.2702  -16.0107   24.3864 C.3     4  UNL4       -0.0309
     30 C         -14.9607   -2.6861   24.1888 C.3     5  UNK5       -0.0497
     31 C          -2.0377   -4.2408   25.0666 C.3     7  UNL7        0.0941
     32 C           3.6157  -17.0195   26.0252 C.3     8  UNL8        0.0000
     33 C          -3.4002   -3.4830   26.6539 C.3     7  UNL7        0.0512
     34 C          -8.8323    4.6167   11.3596 C.3     2  UNL2       -0.0653
     35 C          -3.0794   -5.9969   26.4826 C.3     7  UNL7       -0.0108
     36 H         -17.3790   -1.9959   22.9520 H       5  UNK5        0.0268
     37 H         -11.2378  -15.1628   23.9606 H       4  UNL4        0.0309
     38 H          -4.5562   -8.5450   12.3134 H       1  UNL1        0.0268
     39 H          -8.8478  -15.2368   23.7257 H       4  UNL4        0.0309
     40 H         -15.3232   -3.4544   24.8875 H       5  UNK5        0.0268
     41 H         -15.1065   -3.1016   23.1802 H       5  UNK5        0.0268
     42 H          -1.4810   -4.9156   24.4296 H       7  UNL7        0.0662
     43 H          -7.9400   -8.3370   12.9586 H       9  UNK9        0.0000
     44 H          -4.1016   -3.5499   27.4783 H       7  UNL7        0.0498
     45 H          -8.6556    4.9691   12.3852 H       2  UNL2        0.0230
     46 H          -8.4204    5.3854   10.6893 H       2  UNL2        0.0230
     47 H          -8.2530    3.6912   11.2311 H       2  UNL2        0.0230
     48 H          -4.1633   -6.1585   26.5524 H       7  UNL7        0.0391
     49 H          -2.6468   -6.6691   25.7355 H       7  UNL7        0.0391
     50 H          -2.5738   -6.1909   27.4390 H       7  UNL7        0.0391
     51 N          -4.7641   18.7187   11.8744 N.2    10  UNL10      -0.1411
     52 N          -5.5575   17.0038   12.9632 N.pl3  10  UNL10      -0.3160
     53 C         -13.4576    5.4730   10.8863 C.3     2  UNL2       -0.0531
     54 C         -11.9796    5.6053   11.2761 C.3     2  UNL2       -0.0533
     55 C         -17.6701   18.9299   11.0785 C.3     7  UNL7       -0.0562
     56 C          -4.7471   17.3752   11.9563 C.2    10  UNL10       0.1066
     57 C           0.9063    4.5965   12.9149 C.3     1  UNL1        0.0461
     58 C          -6.1096   18.1330   13.5437 C.3    10  UNL10       0.0645
     59 C         -11.5417   26.2327   -1.7507 C.3    11  UNL11      -0.0681
     60 C          -5.7889   15.6191   13.3723 C.3    10  UNL10       0.0019
     61 H         -20.0884   19.6202    9.8417 H      12  UNK12       0.0000
     62 H         -13.9472    6.4533   10.8503 H       2  UNL2        0.0265
     63 H          -7.2656   13.0710   -0.7969 H      13  UNK13       0.0000
     64 H         -11.5572    6.3792   10.6154 H       2  UNL2        0.0265
     65 H         -18.0326   18.1616   11.7772 H       7  UNL7        0.0263
     66 H         -17.8159   18.5145   10.0699 H       7  UNL7        0.0263
     67 H          -4.1904   16.7004   11.3193 H      10  UNL10       0.1018
     68 H         -10.6494   13.2790   -0.1517 H      14  UNK14       0.0000
     69 H          -6.8110   18.0661   14.3680 H      10  UNL10       0.0538
     70 H         -11.3650   26.5851   -0.7250 H       8  UNL8        0.0227
     71 H         -11.1298   27.0014   -2.4210 H       8  UNL8        0.0227
     72 H         -10.9624   25.3072   -1.8792 H       8  UNL8        0.0227
     73 H          -6.8727   15.4575   13.4421 H      10  UNL10       0.0428
     74 H          -5.3562   14.9469   12.6252 H      10  UNL10       0.0428
     75 H          -5.2832   15.4251   14.3287 H      10  UNL10       0.0428
     76 N          -9.0766   11.4795   24.9846 N.2    15  UNL15      -0.1411
     77 N          -9.8700    9.7646   26.0734 N.pl3  15  UNL15      -0.3160
     78 C         -17.7702   -1.7662   23.9966 C.3     5  UNK5       -0.0497
     79 C         -16.2922   -1.6339   24.3864 C.3     5  UNK5       -0.0382
     80 C         -21.9826   11.6907   24.1888 C.3    16  UNL16      -0.0531
     81 C          -9.0596   10.1360   25.0666 C.2    15  UNL15       0.1066
     82 C          -3.4063   -2.6427   26.0252 C.3     7  UNL7        0.0840
     83 C         -10.4222   10.8938   26.6539 C.3    15  UNL15       0.0645
     84 C         -15.8542   18.9935   11.3596 C.3     7  UNL7       -0.0653
     85 C         -10.1014    8.3799   26.4826 C.3    15  UNL15       0.0019
     86 H         -24.4009   12.3810   22.9520 H      17  UNK17       0.0000
     87 H         -18.2598   -0.7859   23.9606 H       5  UNK5        0.0268
     88 H         -11.5781    5.8318   12.3134 H       2  UNL2        0.0265
     89 H         -15.8697   -0.8600   23.7257 H       5  UNK5        0.0303
     90 H         -22.3452   10.9224   24.8875 H       9  UNK9        0.0265
     91 H         -22.1284   11.2753   23.1802 H       9  UNK9        0.0265
     92 H          -8.5030    9.4612   24.4296 H      15  UNL15       0.1018
     93 H         -14.9619    6.0398   12.9586 H      18  UNK18       0.0000
     94 H         -11.1235   10.8269   27.4783 H      15  UNL15       0.0538
     95 H         -15.6775   19.3459   12.3852 H       7  UNL7        0.0230
     96 H         -15.4424   19.7622   10.6893 H       7  UNL7        0.0230
     97 H         -15.2749   18.0680   11.2311 H       7  UNL7        0.0230
     98 H         -11.1853    8.2183   26.5524 H      15  UNL15       0.0428
     99 H          -9.6687    7.7077   25.7355 H      15  UNL15       0.0428
    100 H          -9.5957    8.1859   27.4390 H      15  UNL15       0.0428
    101 N          18.2672    4.3419   11.8744 N.3    19  UNL19      -0.2064
    102 N          17.4739    2.6270   12.9632 N.3    19  UNL19      -0.2802
    103 C           9.5737   -8.9038   10.8863 C.3    10  UNL10      -0.0348
    104 C          11.0517   -8.7715   11.2761 C.3    10  UNL10      -0.0494
    105 C           5.3613    4.5531   11.0785 C.3     1  UNL1       -0.0548
    106 C          18.2842    2.9984   11.9563 C.3    19  UNL19       0.1087
    107 C          23.9376   -9.7803   12.9149 C.3    20  UNL20       0.0000
    108 C          16.9217    3.7562   13.5437 C.3    19  UNL19       0.0527
    109 C          11.4897   11.8559   -1.7507 C.3    21  UNL21      -0.0681
    110 C          17.2425    1.2423   13.3723 C.3    19  UNL19      -0.0108
    111 H           2.9430    5.2433    9.8417 H       1  UNL1        0.0427
    112 H           9.0841   -7.9236   10.8503 H      10  UNL10       0.0306
    113 H          15.7657   -1.3058   -0.7969 H      22  UNK22       0.0000
    114 H          11.4741   -7.9976   10.6154 H      10  UNL10       0.0268
    115 H           4.9987    3.7848   11.7772 H       1  UNL1        0.0263
    116 H           5.2154    4.1376   10.0699 H       1  UNL1        0.0263
    117 H          18.8409    2.3236   11.3193 H      19  UNL19       0.0675
    118 H          12.3819   -1.0978   -0.1517 H      23  UNK23       0.0000
    119 H          16.2204    3.6893   14.3680 H      19  UNL19       0.0499
    120 H          11.6663   12.2083   -0.7250 H      12  UNK12       0.0227
    121 H          11.9015   12.6246   -2.4210 H      12  UNK12       0.0227
    122 H          12.0689   10.9304   -1.8792 H      12  UNK12       0.0227
    123 H          16.1586    1.0807   13.4421 H      19  UNL19       0.0391
    124 H          17.6751    0.5701   12.6252 H      19  UNL19       0.0391
    125 H          17.7481    1.0483   14.3287 H      19  UNL19       0.0391
    126 N          13.9547   -2.8973   24.9846 N.3    24  UNL24      -0.2064
    127 N          13.1613   -4.6122   26.0734 N.3    24  UNL24      -0.2802
    128 C           5.2612  -16.1430   23.9966 C.3    13  UNK13      -0.0309
    129 C           6.7392  -16.0107   24.3864 C.3    13  UNK13      -0.0309
    130 C           1.0487   -2.6861   24.1888 C.3     7  UNL7       -0.0485
    131 C          13.9717   -4.2408   25.0666 C.3    24  UNL24       0.1087
    132 C          19.6251  -17.0195   26.0252 C.3    25  UNL25       0.0000
    133 C          12.6092   -3.4830   26.6539 C.3    24  UNL24       0.0527
    134 C           7.1771    4.6167   11.3596 C.3     1  UNL1       -0.0652
    135 C          12.9299   -5.9969   26.4826 C.3    24  UNL24      -0.0108
    136 H          -1.3696   -1.9959   22.9520 H       7  UNL7        0.0430
    137 H           4.7716  -15.1628   23.9606 H      13  UNK13       0.0309
    138 H          11.4532   -8.5450   12.3134 H      10  UNL10       0.0268
    139 H           7.1616  -15.2368   23.7257 H      13  UNK13       0.0309
    140 H           0.6862   -3.4544   24.8875 H       7  UNL7        0.0269
    141 H           0.9029   -3.1016   23.1802 H       7  UNL7        0.0269
    142 H          14.5284   -4.9156   24.4296 H      24  UNL24       0.0675
    143 H           8.0694   -8.3370   12.9586 H       2  UNL2        0.0309
    144 H          11.9078   -3.5499   27.4783 H      24  UNL24       0.0499
    145 H           7.3538    4.9691   12.3852 H       1  UNL1        0.0230
    146 H           7.5889    5.3854   10.6893 H       1  UNL1        0.0230
    147 H           7.7564    3.6912   11.2311 H       1  UNL1        0.0230
    148 H          11.8461   -6.1585   26.5524 H      24  UNL24       0.0391
    149 H          13.3626   -6.6691   25.7355 H      24  UNL24       0.0391
    150 H          13.4356   -6.1909   27.4390 H      24  UNL24       0.0391
    151 N          11.2453   18.7187   11.8744 N.2    26  UNL26      -0.1411
    152 N          10.4519   17.0038   12.9632 N.pl3  26  UNL26      -0.3160
    153 C           2.5517    5.4730   10.8863 C.3     1  UNL1        0.0008
    154 C           4.0298    5.6053   11.2761 C.3     1  UNL1       -0.0404
    155 C          -1.6607   18.9299   11.0785 C.3    15  UNL15      -0.0562
    156 C          11.2623   17.3752   11.9563 C.2    26  UNL26       0.1066
    157 C          16.9156    4.5965   12.9149 C.3    19  UNL19       0.1014
    158 C           9.8997   18.1330   13.5437 C.3    26  UNL26       0.0645
    159 C           4.4677   26.2327   -1.7507 C.3    27  UNL27      -0.0681
    160 C          10.2205   15.6191   13.3723 C.3    26  UNL26       0.0019
    161 H          -4.0790   19.6202    9.8417 H      28  UNK28       0.0000
    162 H           2.0622    6.4533   10.8503 H       1  UNL1        0.0427
    163 H           8.7438   13.0710   -0.7969 H      29  UNK29       0.0000
    164 H           4.4522    6.3792   10.6154 H       1  UNL1        0.0277
    165 H          -2.0232   18.1616   11.7772 H      15  UNL15       0.0263
    166 H          -1.8065   18.5145   10.0699 H      15  UNL15       0.0263
    167 H          11.8190   16.7004   11.3193 H      26  UNL26       0.1018
    168 H           5.3600   13.2790   -0.1517 H      30  UNK30       0.0000
    169 H           9.1984   18.0661   14.3680 H      26  UNL26       0.0538
    170 H           4.6444   26.5851   -0.7250 H      16  UNL16       0.0227
    171 H           4.8795   27.0014   -2.4210 H      16  UNL16       0.0227
    172 H           5.0470   25.3072   -1.8792 H      16  UNL16       0.0227
    173 H           9.1367   15.4575   13.4421 H      26  UNL26       0.0428
    174 H          10.6532   14.9469   12.6252 H      26  UNL26       0.0428
    175 H          10.7262   15.4251   14.3287 H      26  UNL26       0.0428
    176 N           6.9328   11.4795   24.9846 N.2    31  UNL31      -0.1411
    177 N           6.1394    9.7646   26.0734 N.pl3  31  UNL31      -0.3160
    178 C          -1.7608   -1.7662   23.9966 C.3     7  UNL7        0.0042
    179 C          -0.2828   -1.6339   24.3864 C.3     7  UNL7       -0.0242
    180 C          -5.9732   11.6907   24.1888 C.3    32  UNL32      -0.0531
    181 C           6.9497   10.1360   25.0666 C.2    31  UNL31       0.1066
    182 C          12.6031   -2.6427   26.0252 C.3    24  UNL24       0.1014
    183 C           5.5872   10.8938   26.6539 C.3    31  UNL31       0.0645
    184 C           0.1552   18.9935   11.3596 C.3    15  UNL15      -0.0653
    185 C           5.9080    8.3799   26.4826 C.3    31  UNL31       0.0019
    186 H          -8.3915   12.3810   22.9520 H      33  UNK33       0.0000
    187 H          -2.2504   -0.7859   23.9606 H       7  UNL7        0.0430
    188 H           4.4313    5.8318   12.3134 H       1  UNL1        0.0277
    189 H           0.1396   -0.8600   23.7257 H       7  UNL7        0.0316
    190 H          -6.3358   10.9224   24.8875 H      17  UNK17       0.0265
    191 H          -6.1190   11.2753   23.1802 H      17  UNK17       0.0265
    192 H           7.5064    9.4612   24.4296 H      31  UNL31       0.1018
    193 H           1.0475    6.0398   12.9586 H       1  UNL1        0.0495
    194 H           4.8859   10.8269   27.4783 H      31  UNL31       0.0538
    195 H           0.3319   19.3459   12.3852 H      15  UNL15       0.0230
    196 H           0.5670   19.7622   10.6893 H      15  UNL15       0.0230
    197 H           0.7345   18.0680   11.2311 H      15  UNL15       0.0230
    198 H           4.8241    8.2183   26.5524 H      31  UNL31       0.0428
    199 H           6.3406    7.7077   25.7355 H      31  UNL31       0.0428
    200 H           6.4137    8.1859   27.4390 H      31  UNL31       0.0428
@<TRIPOS>BOND
     1    21     9    1
     2    71    59    1
     3   171   159    1
     4   121   109    1
     5   122   109    1
     6    22     9    1
     7   172   159    1
     8    72    59    1
     9     9    20    1
    10    59    70    1
    11   109   120    1
    12   159   170    1
    13    11    53    1
    14   111   153    1
    15   116   105    1
    16    66    55    1
    17   166   155    1
    18    16     5    1
    19   114   104    1
    20    14     4    1
    21    64    54    1
    22   164   154    1
    23    46    34    1
    24    96    84    1
    25   196   184    1
    26   146   134    1
    27   162   153    1
    28   112   103    1
    29    62    53    1
    30    12     3    1
    31   103   104    1
    32    53    54    1
    33   153   154    1
    34   153     1    1
    35     3     4    1
    36   155   184    1
    37   155   165    1
    38     5    54    1
    39     5    34    1
    40     5    15    1
    41    55    84    1
    42    55    65    1
    43   105   154    1
    44   105   134    1
    45   105   115    1
    46    47    34    1
    47   197   184    1
    48    97    84    1
    49   147   134    1
    50   154   188    1
    51     4    38    1
    52   104   138    1
    53    54    88    1
    54   167   156    1
    55    17     6    1
    56    67    56    1
    57   117   106    1
    58   184   195    1
    59    34    45    1
    60    84    95    1
    61   134   145    1
    62   101   106    1
    63   101   157    1
    64     1     6    1
    65     1    57    1
    66   151   156    2
    67    51    56    2
    68   106   102    1
    69     6     2    1
    70    56    52    1
    71   156   152    1
    72   124   110    1
    73   174   160    1
    74    74    60    1
    75    24    10    1
    76     7   143    1
    77   157   108    1
    78    57   193    1
    79    57     8    1
    80   152   160    1
    81   152   158    1
    82     2    10    1
    83     2     8    1
    84   102   110    1
    85   102   108    1
    86    52    60    1
    87    52    58    1
    88   160   173    1
    89   160   175    1
    90    10    23    1
    91    10    25    1
    92    60    73    1
    93    60    75    1
    94   110   123    1
    95   110   125    1
    96     8    19    1
    97    58    69    1
    98   108   119    1
    99   158   169    1
   100    36    78    1
   101   136   178    1
   102    91    80    1
   103    41    30    1
   104   141   130    1
   105   191   180    1
   106    39    29    1
   107   189   179    1
   108    89    79    1
   109   139   129    1
   110    87    78    1
   111   137   128    1
   112   187   178    1
   113    37    28    1
   114    28    29    1
   115   178   179    1
   116   178    26    1
   117   128   129    1
   118    78    79    1
   119    30    79    1
   120    30    40    1
   121   180   190    1
   122    80    90    1
   123   130   179    1
   124   130   140    1
   125    92    81    1
   126    42    31    1
   127   192   181    1
   128   142   131    1
   129   176   181    2
   130    26    31    1
   131    26    82    1
   132    76    81    2
   133   126   131    1
   134   126   182    1
   135    31    27    1
   136   181   177    1
   137    81    77    1
   138   131   127    1
   139    99    85    1
   140   199   185    1
   141   149   135    1
   142    49    35    1
   143    82    33    1
   144   182   133    1
   145   177   185    1
   146   177   183    1
   147    27    35    1
   148    27    33    1
   149    77    85    1
   150    77    83    1
   151   127   135    1
   152   127   133    1
   153    85    98    1
   154    85   100    1
   155   135   148    1
   156   135   150    1
   157   185   198    1
   158   185   200    1
   159    35    48    1
   160    35    50    1
   161    83    94    1
   162    33    44    1
   163   133   144    1
   164   183   194    1
