@<TRIPOS>MOLECULE
Lattice="48.01131394949155 -0.19818993299999998 0.31709931599999996 -18.410584635028748 45.496376096167864 -0.004229376 -14.566580986253813 -22.43922556439101 40.082996327805056" Properties=species:S:1:pos:R:3 i=3 E=-1458.0468401132 pbc="T T T"
 4077 4542 0 0 0
SMALL
GASTEIGER

@<TRIPOS>ATOM
