@<TRIPOS>MOLECULE
Lattice="48.01131394949155 -0.19818993299999998 0.31709931599999996 -18.410584635028748 45.496376096167864 -0.004229376 -14.566580986253813 -22.43922556439101 40.082996327805056" Properties=species:S:1:pos:R:3 i=20 E=-1458.0492827887 pbc="T T T"
 4077 4542 0 0 0
SMALL
GASTEIGER

@<TRIPOS>ATOM
      1 TI         -2.9699    2.3490   11.5235 Ti      1  UNL1        0.0000
      2 TI          8.1081    5.4118    1.9128 Ti      1  UNL1        0.0000
      3 TI          1.5750   -0.9658    9.6276 Ti      1  UNL1        0.0000
      4 TI          3.5158    8.7255    3.8044 Ti      1  UNL1        0.0000
      5 TI          1.8432    9.6140    1.8373 Ti      1  UNL1        0.0000
      6 TI          3.0462   -2.1305   11.5968 Ti      1  UNL1        0.0000
      7 TI         -1.5227    1.0487    9.6244 Ti      1  UNL1        0.0000
      8 TI          6.3922    6.4555    3.7615 Ti      1  UNL1        0.0000
      9 H           3.6779    1.7170    7.1475 H       1  UNL1        0.0000
     10 H          -0.0077   -3.9529    7.4332 H       1  UNL1        0.0000
     11 H           5.1418   11.5113    6.0344 H       1  UNL1        0.0000
     12 H          -2.9574    6.3693   11.3553 H       1  UNL1        0.0000
     13 H           7.9342    1.2817    2.2224 H       1  UNL1        0.0000
     14 H          -6.7229    0.7366   11.1746 H       1  UNL1        0.0000
     15 H          11.7806    6.8896    2.1016 H       1  UNL1        0.0000
     16 H           3.2775   -6.2867   11.2923 H       1  UNL1        0.0000
     17 H          -2.0603    8.2301    2.1035 H       1  UNL1        0.0000
     18 H           4.8172    3.6745    6.0619 H       1  UNL1        0.0000
     19 H           0.0639    4.0187    7.4479 H       1  UNL1        0.0000
     20 H          -3.6741   -1.7201    7.2442 H       1  UNL1        0.0000
     21 H           2.7089    8.1903   -0.0835 H       1  UNL1        0.0000
     22 H           7.0880    6.8759    0.0873 H       1  UNL1        0.0000
     23 H           0.4495    0.7092   11.1934 H       1  UNL1        0.0000
     24 H           4.4477    6.9754    2.2085 H       1  UNL1        0.0000
     25 H           3.6838   -2.3108    6.1491 H       1  UNL1        0.0000
     26 H           1.3447    9.8774    7.3050 H       1  UNL1        0.0000
     27 H          -5.9986    4.1588    9.1195 H       1  UNL1        0.0000
     28 H          10.9444    3.4612    4.3936 H       1  UNL1        0.0000
     29 H          -3.5354    2.5097    6.0062 H       1  UNL1        0.0000
     30 H          -1.0851   11.8025    4.3243 H       1  UNL1        0.0000
     31 H           0.0187    6.2155    6.5342 H       1  UNL1        0.0000
     32 H           1.4321    6.9796    5.8373 H       1  UNL1        0.0000
     33 H           1.6785   12.8316    2.6250 H       1  UNL1        0.0000
     34 H           7.8981   -0.7724    3.4220 H      45  UNL45       0.0000
     35 H           7.4758   -0.2708   10.0486 H       1  UNL1        0.0000
     36 H           6.1246   -1.0787   10.8162 H       1  UNL1        0.0000
     37 H          10.0001    9.0633    6.3961 H       1  UNL1        0.0000
     38 H           8.6285    8.3317    5.5873 H       1  UNL1        0.0000
     39 H           8.1275    5.4218    8.6413 H       1  UNL1        0.0000
     40 H           7.6319    5.6884    6.9780 H       1  UNL1        0.0000
     41 H           7.0422   -4.8968    9.5952 H       1  UNL1        0.0000
     42 H           5.7064   -3.9044   10.1562 H       1  UNL1        0.0000
     43 C           8.7801    4.9103    4.7582 C.3     1  UNL1        0.0000
     44 C          -3.8028    2.7160    8.7045 C.2     1  UNL1        0.0000
     45 C           3.9416   -2.5492    8.7584 C.2     1  UNL1        0.0000
     46 C           1.0562   10.1569    4.6723 C.3     1  UNL1        0.0000
     47 C           9.6127    4.3379    5.8265 C.ar    1  UNL1        0.0000
     48 C          -4.6939    3.2918    7.6602 C.2     1  UNL1        0.0000
     49 C           4.7920   -3.2053    7.7518 C.2     1  UNL1        0.0000
     50 C           0.2103   10.7807    5.7287 C.ar    1  UNL1        0.0000
     51 C           9.3122    4.5273    7.2151 C.ar    1  UNL1        0.0000
     52 C          -4.4081    3.0896    6.2926 C.3     1  UNL1        0.0000
     53 C           5.8784   -4.0691    8.1126 C.3     1  UNL1        0.0000
     54 C          -0.8686   11.6198    5.3731 C.ar    1  UNL1        0.0000
     55 C           0.5070   10.5291    7.0640 C.ar    1  UNL1        0.0000
     56 C           4.5167   -2.9698    6.3847 C.3     1  UNL1        0.0000
     57 C          10.7508    3.5845    5.4567 C.ar    1  UNL1        0.0000
     58 C          -5.8061    4.0264    8.0566 C.3     1  UNL1        0.0000
     59 C           3.1003    4.9551    6.1491 C.ar    1  UNL1        0.0000
     60 C           1.7993    2.7702    7.3445 C.ar    1  UNL1        0.0000
     61 C           6.8913   10.2727    6.0546 C.ar    1  UNL1        0.0000
     62 C          -1.7767   -2.7476    7.3994 C.2     1  UNL1        0.0000
     63 C           8.0467    1.3640    0.0879 C.2     1  UNL1        0.0000
     64 C           1.7817   13.7266    0.1310 C.2     1  UNL1        0.0000
     65 C          11.7334    6.7935   -0.0382 C.2     1  UNL1        0.0000
     66 C          -1.8590    8.2964   -0.0492 C.2     1  UNL1        0.0000
     67 C           3.8228    6.0344    5.4547 C.3     1  UNL1        0.0000
     68 C           1.1023    1.6225    7.9972 C.3     1  UNL1        0.0000
     69 C           6.2183    9.2339    5.2665 C.3     1  UNL1        0.0000
     70 C          -1.1311   -1.6563    8.1807 C.2     1  UNL1        0.0000
     71 C           8.1003    2.8530    0.0911 C.2     1  UNL1        0.0000
     72 C           1.7632   12.2588    0.0849 C.2     1  UNL1        0.0000
     73 C          10.4444    6.0844   -0.0134 C.2     1  UNL1        0.0000
     74 C          -0.5608    9.0319   -0.0126 C.2     1  UNL1        0.0000
     75 C           1.7306    5.0829    6.5494 C.ar    1  UNL1        0.0000
     76 C           3.1556    2.6528    6.9717 C.ar    1  UNL1        0.0000
     77 C           6.1713   11.4460    6.3780 C.ar    1  UNL1        0.0000
     78 C          -1.0408   -3.8877    7.0963 C.3     1  UNL1        0.0000
     79 C           7.9563    0.6973    1.3045 C.3     1  UNL1        0.0000
     80 C          -2.9827    6.9550   12.2712 C.ar    1  UNL1        0.0000
     81 C          12.3117    7.1712    1.1955 C.2     1  UNL1        0.0000
     82 C          -7.2552    0.4577   12.0823 C.3     1  UNL1        0.0000
     83 C           8.2536   10.1392    6.4782 C.ar    1  UNL1        0.0000
     84 C          -3.1221   -2.6210    6.9921 C.3     1  UNL1        0.0000
     85 C           3.7790    3.7362    6.3796 C.ar    1  UNL1        0.0000
     86 C           1.1059    3.9582    7.1384 C.ar    1  UNL1        0.0000
     87 C           7.5388   -0.3367   12.1001 C.ar    1  UNL1        0.0000
     88 C          -2.5045    7.9421    1.1553 C.3     1  UNL1        0.0000
     89 C           3.2129   -6.8294   12.2310 C.3     1  UNL1        0.0000
     90 C           1.7419   14.4519    1.3662 C.2     1  UNL1        0.0000
     91 N           1.0237    6.2482    6.4177 N.pl3   1  UNL1        0.0000
     92 N           1.6083   13.8462    2.5831 N.pl3   1  UNL1        0.0000
     93 N           7.0707   -0.7054   10.8681 N.pl3   1  UNL1        0.0000
     94 N           9.0008    9.0179    6.2417 N.pl3   1  UNL1        0.0000
     95 N           8.2102    5.1998    7.6577 N.pl3   1  UNL1        0.0000
     96 N           6.1905   -4.3859    9.4025 N.3     1  UNL1        0.0000
     97 O           7.7605    5.6326    5.0831 O.3     1  UNL1        0.0000
     98 O          -2.8569    1.9387    8.3329 O.2     1  UNL1        0.0000
     99 O           4.2148   -2.7326   10.0094 O.2     1  UNL1        0.0000
    100 O           0.7252   10.3251    3.4504 O.3     1  UNL1        0.0000
    101 O           2.0798    9.4767    5.0517 O.3     1  UNL1        0.0000
    102 O           2.9667   -1.8079    8.3739 O.2     1  UNL1        0.0000
    103 O           9.0964    4.6803    3.5318 O.3     1  UNL1        0.0000
    104 O          -4.0321    3.0326    9.9274 O.2     1  UNL1        0.0000
    105 O           6.4251    5.0030    2.7339 O.3     1  UNL1        0.0000
    106 O          -1.3824    2.5928   10.6194 O.3     1  UNL1        0.0000
    107 O           7.8384    7.0194    2.6670 O.3     1  UNL1        0.0000
    108 O          -2.8710    0.6444   10.8036 O.3     1  UNL1        0.0000
    109 O           1.5689   -2.5387   10.6264 O.3     1  UNL1        0.0000
    110 O           3.3713   10.1927    2.7631 O.3     1  UNL1        0.0000
    111 O           2.8055   -0.4275   10.8795 O.3     1  UNL1        0.0000
    112 O           2.2145    8.0250    2.6052 O.3     1  UNL1        0.0000
    113 O           5.0664    5.8463    5.1648 O.3     1  UNL1        0.0000
    114 O          -0.1572    1.7024    8.1845 O.3     1  UNL1        0.0000
    115 O           6.8473    8.1743    4.9401 O.3     1  UNL1        0.0000
    116 O          -1.8591   -0.6837    8.5683 O.2     1  UNL1        0.0000
    117 O           3.2266   -4.0240   12.3207 O.2     1  UNL1        0.0000
    118 O           1.6688   11.5916    1.1731 O.2     1  UNL1        0.0000
    119 O           5.0220   -1.7008   12.2383 O.3     1  UNL1        0.0000
    120 O          -0.0240    9.1971    1.1417 O.2     1  UNL1        0.0000
    121 O           4.9890    9.4299    4.9129 O.3     1  UNL1        0.0000
    122 O           0.1163   -1.7508    8.4319 O.2     1  UNL1        0.0000
    123 O           3.2003    7.1127    5.1522 O.3     1  UNL1        0.0000
    124 O           1.8226    0.6204    8.3395 O.3     1  UNL1        0.0000
    125 O           9.9245    5.7986    1.1311 O.2     1  UNL1        0.0000
    126 O          -4.9124    1.9602   12.2540 O.2     1  UNL1        0.0000
    127 O           8.1541    3.4536    1.2090 O.2     1  UNL1        0.0000
    128 O          -2.9988    4.1960   12.3014 O.3     1  UNL1        0.0000
    129 O           4.8996    7.4993    2.8945 O.3     1  UNL1        0.0000
    130 O           0.0781    0.1341   10.5004 O.3     1  UNL1        0.0000
    131 O           7.3161    5.9290    0.0799 O.3     1  UNL1        0.0000
    132 O           2.5397    9.1468   -0.0049 O.3     1  UNL1        0.0000
    133 H           0.3337    3.2831   12.5615 H       3  UNL3        0.0000
    134 H           1.8429    3.1432   10.2448 H       3  UNL3        0.0000
    135 C           1.3608    2.9686   12.4146 C.2     3  UNL3        0.0000
    136 H           4.3394    4.0043    9.5425 H       3  UNL3        0.0000
    137 C           2.1056    2.8963   11.2655 C.2     3  UNL3        0.0000
    138 H           1.6832    3.4895   15.2713 H       3  UNL3        0.0000
    139 N           2.1764    2.5409   13.4530 N.pl3   3  UNL3        0.0000
    140 C           5.0758    3.4192   10.1083 C.3     3  UNL3        0.0000
    141 H           5.4905    4.0459   10.9078 H       3  UNL3        0.0000
    142 C           1.8048    2.4763   14.8735 C.3     3  UNL3        0.0000
    143 N           3.3588    2.4279   11.6147 N.pl3   3  UNL3        0.0000
    144 H           0.8613    1.9291   14.9803 H       3  UNL3        0.0000
    145 H           5.8893    3.1597    9.4140 H       3  UNL3        0.0000
    146 C           3.3846    2.2206   12.9445 C.3     3  UNL3        0.0000
    147 C           4.4633    2.1419   10.6697 C.3     3  UNL3        0.0000
    148 H           4.0329    1.5019    9.8901 H       3  UNL3        0.0000
    149 H           2.5837    1.9347   15.4222 H       3  UNL3        0.0000
    150 H           4.2303    1.8527   13.5139 H       3  UNL3        0.0000
    151 H           5.1976    1.5386   11.2177 H       3  UNL3        0.0000
    152 TI         -7.8254   -5.1307   24.8845 Ti      1  UNL1        0.0000
    153 TI          3.2525   -2.0680   15.2738 Ti      1  UNL1        0.0000
    154 TI         -3.2806   -8.4455   22.9886 Ti      1  UNL1        0.0000
    155 TI         -1.3397    1.2458   17.1654 Ti      1  UNL1        0.0000
    156 TI         -3.0123    2.1342   15.1983 Ti      1  UNL1        0.0000
    157 TI         -1.8093   -9.6102   24.9578 Ti      1  UNL1        0.0000
    158 TI         -6.3782   -6.4311   22.9854 Ti      1  UNL1        0.0000
    159 TI          1.5367   -1.0243   17.1225 Ti      1  UNL1        0.0000
    160 H          -1.1777   -5.7627   20.5085 H       1  UNL1        0.0000
    161 H          -4.8632  -11.4326   20.7942 H       1  UNL1        0.0000
    162 H           0.2862    4.0316   19.3954 H       1  UNL1        0.0000
    163 H          -7.8130   -1.1105   24.7163 H       1  UNL1        0.0000
    164 H           3.0786   -6.1981   15.5834 H       1  UNL1        0.0000
    165 H         -11.5784   -6.7432   24.5356 H       1  UNL1        0.0000
    166 H           6.9251   -0.5902   15.4626 H       1  UNL1        0.0000
    167 H          -1.5780  -13.7664   24.6533 H       1  UNL1        0.0000
    168 H          -6.9159    0.7503   15.4645 H       1  UNL1        0.0000
    169 H          -0.0384   -3.8052   19.4229 H       1  UNL1        0.0000
    170 H          -4.7916   -3.4610   20.8089 H       1  UNL1        0.0000
    171 H          -8.5296   -9.1998   20.6052 H       1  UNL1        0.0000
    172 H          -2.1466    0.7106   13.2775 H       1  UNL1        0.0000
    173 H           2.2325   -0.6038   13.4483 H       1  UNL1        0.0000
    174 H          -4.4060   -6.7705   24.5544 H       1  UNL1        0.0000
    175 H          -0.4078   -0.5043   15.5695 H       1  UNL1        0.0000
    176 H          -1.1718   -9.7906   19.5101 H       1  UNL1        0.0000
    177 H          -3.5108    2.3976   20.6660 H       1  UNL1        0.0000
    178 H         -10.8541   -3.3209   22.4805 H       1  UNL1        0.0000
    179 H           6.0888   -4.0185   17.7546 H       1  UNL1        0.0000
    180 H          -8.3909   -4.9700   19.3672 H       1  UNL1        0.0000
    181 H          -5.9406    4.3228   17.6853 H       1  UNL1        0.0000
    182 H          -4.8368   -1.2643   19.8952 H       1  UNL1        0.0000
    183 H          -3.4234   -0.5001   19.1983 H       1  UNL1        0.0000
    184 H          -3.1771    5.3519   15.9860 H       1  UNL1        0.0000
    185 H           3.0425   -8.2522   16.7830 H      45  UNL45       0.0000
    186 H           2.6203   -7.7506   23.4096 H       1  UNL1        0.0000
    187 H           1.2691   -8.5584   24.1772 H       1  UNL1        0.0000
    188 H           5.1446    1.5835   19.7571 H       1  UNL1        0.0000
    189 H           3.7729    0.8519   18.9483 H       1  UNL1        0.0000
    190 H           3.2720   -2.0579   22.0023 H       1  UNL1        0.0000
    191 H           2.7764   -1.7914   20.3390 H       1  UNL1        0.0000
    192 H           2.1867  -12.3766   22.9562 H       1  UNL1        0.0000
    193 H           0.8509  -11.3842   23.5172 H       1  UNL1        0.0000
    194 C           3.9246   -2.5694   18.1192 C.3     1  UNL1        0.0000
    195 C          -8.6583   -4.7637   22.0655 C.2     1  UNL1        0.0000
    196 C          -0.9140  -10.0289   22.1194 C.2     1  UNL1        0.0000
    197 C          -3.7994    2.6772   18.0333 C.3     1  UNL1        0.0000
    198 C           4.7571   -3.1419   19.1875 C.ar    1  UNL1        0.0000
    199 C          -9.5494   -4.1879   21.0212 C.2     1  UNL1        0.0000
    200 C          -0.0635  -10.6850   21.1128 C.2     1  UNL1        0.0000
    201 C          -4.6452    3.3010   19.0897 C.ar    1  UNL1        0.0000
    202 C           4.4566   -2.9525   20.5761 C.ar    1  UNL1        0.0000
    203 C          -9.2636   -4.3901   19.6536 C.3     1  UNL1        0.0000
    204 C           1.0229  -11.5488   21.4736 C.3     1  UNL1        0.0000
    205 C          -5.7241    4.1400   18.7341 C.ar    1  UNL1        0.0000
    206 C          -4.3485    3.0494   20.4250 C.ar    1  UNL1        0.0000
    207 C          -0.3389  -10.4495   19.7457 C.3     1  UNL1        0.0000
    208 C           5.8953   -3.8953   18.8177 C.ar    1  UNL1        0.0000
    209 C         -10.6616   -3.4533   21.4176 C.3     1  UNL1        0.0000
    210 C          -1.7552   -2.5246   19.5101 C.ar    1  UNL1        0.0000
    211 C          -3.0563   -4.7096   20.7055 C.ar    1  UNL1        0.0000
    212 C           2.0358    2.7930   19.4156 C.ar    1  UNL1        0.0000
    213 C          -6.6322  -10.2273   20.7604 C.2     1  UNL1        0.0000
    214 C           3.1911   -6.1157   13.4489 C.2     1  UNL1        0.0000
    215 C          -3.0739    6.2469   13.4920 C.ar    1  UNL1        0.0000
    216 C           6.8779   -0.6863   13.3228 C.ar    1  UNL1        0.0000
    217 C          -6.7146    0.8166   13.3118 C.2     1  UNL1        0.0000
    218 C          -1.0327   -1.4454   18.8157 C.3     1  UNL1        0.0000
    219 C          -3.7532   -5.8572   21.3582 C.3     1  UNL1        0.0000
    220 C           1.3628    1.7542   18.6275 C.3     1  UNL1        0.0000
    221 C          -5.9866   -9.1361   21.5417 C.2     1  UNL1        0.0000
    222 C           3.2447   -4.6268   13.4521 C.2     1  UNL1        0.0000
    223 C          -3.0923    4.7791   13.4459 C.3     1  UNL1        0.0000
    224 C           5.5889   -1.3953   13.3476 C.3     1  UNL1        0.0000
    225 C          -5.4163    1.5521   13.3484 C.2     1  UNL1        0.0000
    226 C          -3.1250   -2.3969   19.9104 C.ar    1  UNL1        0.0000
    227 C          -1.6999   -4.8269   20.3327 C.ar    1  UNL1        0.0000
    228 C           1.3158    3.9663   19.7390 C.ar    1  UNL1        0.0000
    229 C          -5.8963  -11.3674   20.4573 C.3     1  UNL1        0.0000
    230 C           3.1008   -6.7825   14.6655 C.3     1  UNL1        0.0000
    231 C          -7.8383   -0.5248   25.6322 C.ar    1  UNL1        0.0000
    232 C           7.4561   -0.3086   14.5565 C.ar    1  UNL1        0.0000
    233 C         -12.1107   -7.0220   25.4433 C.3     1  UNL1        0.0000
    234 C           3.3981    2.6594   19.8392 C.ar    1  UNL1        0.0000
    235 C          -7.9777  -10.1007   20.3531 C.3     1  UNL1        0.0000
    236 C          -1.0765   -3.7436   19.7406 C.ar    1  UNL1        0.0000
    237 C          -3.7497   -3.5216   20.4994 C.ar    1  UNL1        0.0000
    238 C           2.6833   -7.8164   25.4611 C.ar    1  UNL1        0.0000
    239 C          -7.3601    0.4624   14.5163 C.3     1  UNL1        0.0000
    240 C          -1.6427  -14.3091   25.5920 C.3     1  UNL1        0.0000
    241 C          -3.1137    6.9721   14.7272 C.ar    1  UNL1        0.0000
    242 N          -3.8319   -1.2315   19.7787 N.pl3   1  UNL1        0.0000
    243 N          -3.2472    6.3665   15.9441 N.pl3   1  UNL1        0.0000
    244 N           2.2152   -8.1851   24.2291 N.pl3   1  UNL1        0.0000
    245 N           4.1453    1.5382   19.6027 N.pl3   1  UNL1        0.0000
    246 N           3.3547   -2.2800   21.0187 N.pl3   1  UNL1        0.0000
    247 N           1.3349  -11.8656   22.7635 N.3     1  UNL1        0.0000
    248 O           2.9050   -1.8471   18.4441 O.3     1  UNL1        0.0000
    249 O          -7.7125   -5.5411   21.6939 O.2     1  UNL1        0.0000
    250 O          -0.6407  -10.2123   23.3704 O.2     1  UNL1        0.0000
    251 O          -4.1303    2.8454   16.8114 O.3     1  UNL1        0.0000
    252 O          -2.7757    1.9969   18.4127 O.3     1  UNL1        0.0000
    253 O          -1.8889   -9.2877   21.7349 O.2     1  UNL1        0.0000
    254 O           4.2409   -2.7995   16.8928 O.3     1  UNL1        0.0000
    255 O          -8.8876   -4.4471   23.2884 O.2     1  UNL1        0.0000
    256 O           1.5696   -2.4767   16.0949 O.3     1  UNL1        0.0000
    257 O          -6.2380   -4.8869   23.9804 O.3     1  UNL1        0.0000
    258 O           2.9829   -0.4604   16.0280 O.3     1  UNL1        0.0000
    259 O          -7.7265   -6.8353   24.1646 O.3     1  UNL1        0.0000
    260 O          -3.2866  -10.0185   23.9874 O.3     1  UNL1        0.0000
    261 O          -1.4843    2.7130   16.1241 O.3     1  UNL1        0.0000
    262 O          -2.0501   -7.9072   24.2405 O.3     1  UNL1        0.0000
    263 O          -2.6411    0.5452   15.9662 O.3     1  UNL1        0.0000
    264 O           0.2109   -1.6335   18.5258 O.3     1  UNL1        0.0000
    265 O          -5.0127   -5.7774   21.5455 O.3     1  UNL1        0.0000
    266 O           1.9918    0.6946   18.3011 O.3     1  UNL1        0.0000
    267 O          -6.7146   -8.1634   21.9293 O.2     1  UNL1        0.0000
    268 O          -1.6289  -11.5037   25.6817 O.2     1  UNL1        0.0000
    269 O          -3.1867    4.1118   14.5341 O.3     1  UNL1        0.0000
    270 O           0.1664   -9.1805   25.5993 O.3     1  UNL1        0.0000
    271 O          -4.8795    1.7174   14.5027 O.2     1  UNL1        0.0000
    272 O           0.1335    1.9502   18.2739 O.3     1  UNL1        0.0000
    273 O          -4.7393   -9.2305   21.7929 O.2     1  UNL1        0.0000
    274 O          -1.6552   -0.3671   18.5132 O.3     1  UNL1        0.0000
    275 O          -3.0330   -6.8593   21.7005 O.3     1  UNL1        0.0000
    276 O           5.0690   -1.6811   14.4921 O.3     1  UNL1        0.0000
    277 O          -9.7680   -5.5196   25.6150 O.2     1  UNL1        0.0000
    278 O           3.2986   -4.0261   14.5700 O.2     1  UNL1        0.0000
    279 O          -7.8543   -3.2837   25.6624 O.3     1  UNL1        0.0000
    280 O           0.0441    0.0196   16.2555 O.3     1  UNL1        0.0000
    281 O          -4.7774   -7.3457   23.8614 O.3     1  UNL1        0.0000
    282 O           2.4605   -1.5507   13.4409 O.3     1  UNL1        0.0000
    283 O          -2.3159    1.6671   13.3561 O.3     1  UNL1        0.0000
    284 H          -4.5218   -4.1966   25.9225 H       5  UNL5        0.0000
    285 H          -3.0127   -4.3365   23.6058 H       5  UNL5        0.0000
    286 C          -3.4947   -4.5111   25.7756 C.2     5  UNL5        0.0000
    287 H          -0.5161   -3.4754   22.9035 H       5  UNL5        0.0000
    288 C          -2.7499   -4.5834   24.6265 C.2     5  UNL5        0.0000
    289 H          -3.1723   -3.9902   28.6323 H       5  UNL5        0.0000
    290 N          -2.6791   -4.9389   26.8140 N.pl3   5  UNL5        0.0000
    291 C           0.2202   -4.0605   23.4693 C.3     5  UNL5        0.0000
    292 H           0.6350   -3.4339   24.2688 H       5  UNL5        0.0000
    293 C          -3.0507   -5.0035   28.2345 C.3     5  UNL5        0.0000
    294 N          -1.4968   -5.0518   24.9757 N.pl3   5  UNL5        0.0000
    295 H          -3.9942   -5.5506   28.3413 H       5  UNL5        0.0000
    296 H           1.0338   -4.3200   22.7750 H       5  UNL5        0.0000
    297 C          -1.4709   -5.2592   26.3055 C.3     5  UNL5        0.0000
    298 C          -0.3922   -5.3378   24.0307 C.3     5  UNL5        0.0000
    299 H          -0.8227   -5.9778   23.2511 H       5  UNL5        0.0000
    300 H          -2.2718   -5.5450   28.7832 H       5  UNL5        0.0000
    301 H          -0.6252   -5.6270   26.8749 H       5  UNL5        0.0000
    302 H           0.3421   -5.9411   24.5787 H       5  UNL5        0.0000
    303 TI        -12.6810  -12.6105   38.2455 Ti      1  UNL1        0.0000
    304 TI         -1.6030   -9.5477   28.6348 Ti      1  UNL1        0.0000
    305 TI         -8.1361  -15.9253   36.3496 Ti      1  UNL1        0.0000
    306 TI         -6.1952   -6.2340   30.5264 Ti      1  UNL1        0.0000
    307 TI         -7.8678   -5.3455   28.5593 Ti      1  UNL1        0.0000
    308 TI         -6.6648  -17.0900   38.3188 Ti      1  UNL1        0.0000
    309 TI        -11.2338  -13.9108   36.3464 Ti      1  UNL1        0.0000
    310 TI         -3.3188   -8.5040   30.4835 Ti      1  UNL1        0.0000
    311 H          -6.0332  -13.2425   33.8695 H       1  UNL1        0.0000
    312 H          -9.7188  -18.9123   34.1552 H       1  UNL1        0.0000
    313 H          -4.5693   -3.4481   32.7564 H       1  UNL1        0.0000
    314 H         -12.6685   -8.5902   38.0773 H       1  UNL1        0.0000
    315 H          -1.7769  -13.6778   28.9444 H       1  UNL1        0.0000
    316 H         -16.4339  -14.2229   37.8966 H       2  UNL2        0.0000
    317 H           2.0695   -8.0699   28.8236 H       1  UNL1        0.0000
    318 H          -6.4335  -21.2462   38.0143 H       4  UNL4        0.0000
    319 H         -11.7714   -6.7294   28.8255 H       1  UNL1        0.0000
    320 H          -4.8939  -11.2849   32.7839 H       1  UNL1        0.0000
    321 H          -9.6471  -10.9408   34.1699 H       1  UNL1        0.0000
    322 H         -13.3851  -16.6796   33.9662 H       1  UNL1        0.0000
    323 H          -7.0021   -6.7692   26.6385 H       1  UNL1        0.0000
    324 H          -2.6230   -8.0835   26.8093 H       1  UNL1        0.0000
    325 H          -9.2615  -14.2503   37.9154 H       1  UNL1        0.0000
    326 H          -5.2633   -7.9841   28.9305 H       1  UNL1        0.0000
    327 H          -6.0273  -17.2703   32.8711 H       1  UNL1        0.0000
    328 H          -8.3664   -5.0821   34.0270 H       1  UNL1        0.0000
    329 H         -15.7096  -10.8006   35.8415 H       1  UNL1        0.0000
    330 H           1.2333  -11.4983   31.1156 H       1  UNL1        0.0000
    331 H         -13.2464  -12.4498   32.7282 H       1  UNL1        0.0000
    332 H         -10.7961   -3.1570   31.0463 H       1  UNL1        0.0000
    333 H          -9.6923   -8.7440   33.2562 H       1  UNL1        0.0000
    334 H          -8.2790   -7.9799   32.5593 H       1  UNL1        0.0000
    335 H          -8.0326   -2.1279   29.3470 H       1  UNL1        0.0000
    336 H          -1.8130  -15.7319   30.1440 H      45  UNL45       0.0000
    337 H          -2.2352  -15.2303   36.7706 H       3  UNL3        0.0000
    338 H          -3.5864  -16.0382   37.5382 H       3  UNL3        0.0000
    339 H           0.2891   -5.8962   33.1181 H       1  UNL1        0.0000
    340 H          -1.0826   -6.6278   32.3093 H       1  UNL1        0.0000
    341 H          -1.5835   -9.5377   35.3633 H       1  UNL1        0.0000
    342 H          -2.0791   -9.2711   33.7000 H       1  UNL1        0.0000
    343 H          -2.6689  -19.8563   36.3172 H       1  UNL1        0.0000
    344 H          -4.0047  -18.8639   36.8782 H       1  UNL1        0.0000
    345 C          -0.9310  -10.0492   31.4802 C.3     1  UNL1        0.0000
    346 C         -13.5138  -12.2435   35.4265 C.2     1  UNL1        0.0000
    347 C          -5.7695  -17.5087   35.4804 C.2     1  UNL1        0.0000
    348 C          -8.6549   -4.8025   31.3943 C.3     1  UNL1        0.0000
    349 C          -0.0984  -10.6216   32.5485 C.ar    1  UNL1        0.0000
    350 C         -14.4049  -11.6677   34.3822 C.2     1  UNL1        0.0000
    351 C          -4.9190  -18.1647   34.4738 C.2     1  UNL1        0.0000
    352 C          -9.5008   -4.1788   32.4507 C.ar    1  UNL1        0.0000
    353 C          -0.3989  -10.4322   33.9371 C.ar    1  UNL1        0.0000
    354 C         -14.1192  -11.8699   33.0146 C.3     1  UNL1        0.0000
    355 C          -3.8326  -19.0286   34.8346 C.3     1  UNL1        0.0000
    356 C         -10.5797   -3.3397   32.0951 C.ar    1  UNL1        0.0000
    357 C          -9.2040   -4.4303   33.7860 C.ar    1  UNL1        0.0000
    358 C          -5.1944  -17.9293   33.1067 C.3     1  UNL1        0.0000
    359 C           1.0398  -11.3750   32.1787 C.ar    1  UNL1        0.0000
    360 C         -15.5172  -10.9331   34.7786 C.3     1  UNL1        0.0000
    361 C          -6.6107  -10.0044   32.8711 C.ar    1  UNL1        0.0000
    362 C          -7.9118  -12.1893   34.0665 C.ar    1  UNL1        0.0000
    363 C          -2.8197   -4.6867   32.7766 C.ar    1  UNL1        0.0000
    364 C         -11.4878  -17.7070   34.1214 C.2     1  UNL1        0.0000
    365 C          -1.6644  -13.5955   26.8099 C.2     1  UNL1        0.0000
    366 C          -7.9294   -1.2329   26.8530 C.ar    1  UNL1        0.0000
    367 C           2.0224   -8.1660   26.6838 C.ar    1  UNL1        0.0000
    368 C         -11.5701   -6.6631   26.6728 C.2     1  UNL1        0.0000
    369 C          -5.8882   -8.9251   32.1767 C.3     1  UNL1        0.0000
    370 C          -8.6087  -13.3370   34.7192 C.3     1  UNL1        0.0000
    371 C          -3.4928   -5.7256   31.9885 C.3     1  UNL1        0.0000
    372 C         -10.8421  -16.6158   34.9027 C.2     1  UNL1        0.0000
    373 C          -1.6108  -12.1065   26.8131 C.2     1  UNL1        0.0000
    374 C          -7.9478   -2.7007   26.8069 C.3     1  UNL1        0.0000
    375 C           0.7334   -8.8751   26.7086 C.3     1  UNL1        0.0000
    376 C         -10.2719   -5.9276   26.7094 C.2     1  UNL1        0.0000
    377 C          -7.9805   -9.8766   33.2714 C.ar    1  UNL1        0.0000
    378 C          -6.5554  -12.3067   33.6937 C.ar    1  UNL1        0.0000
    379 C          -3.5398   -3.5135   33.1000 C.ar    1  UNL1        0.0000
    380 C         -10.7518  -18.8472   33.8183 C.3     1  UNL1        0.0000
    381 C          -1.7547  -14.2622   28.0265 C.3     1  UNL1        0.0000
    382 C         -12.6938   -8.0045   38.9932 C.2     1  UNL1        0.0000
    383 C           2.6006   -7.7883   27.9175 C.ar    1  UNL1        0.0000
    384 C         -16.9662  -14.5018   38.8043 C.3     7  UNL7        0.0000
    385 C          -1.4575   -4.8203   33.2002 C.ar    1  UNL1        0.0000
    386 C         -12.8332  -17.5805   33.7141 C.3     1  UNL1        0.0000
    387 C          -5.9321  -11.2233   33.1016 C.ar    1  UNL1        0.0000
    388 C          -8.6052  -11.0013   33.8604 C.ar    1  UNL1        0.0000
    389 C          -2.1722  -15.2962   38.8221 C.2     3  UNL3        0.0000
    390 C         -12.2156   -7.0173   27.8773 C.3     1  UNL1        0.0000
    391 C          -6.4982  -21.7889   38.9530 C.3     8  UNL8        0.0000
    392 C          -7.9692   -0.5076   28.0882 C.ar    1  UNL1        0.0000
    393 N          -8.6874   -8.7112   33.1397 N.pl3   1  UNL1        0.0000
    394 N          -8.1027   -1.1133   29.3051 N.pl3   1  UNL1        0.0000
    395 N          -2.6403  -15.6649   37.5901 N.pl3   3  UNL3        0.0000
    396 N          -0.7103   -5.9415   32.9637 N.pl3   1  UNL1        0.0000
    397 N          -1.5009   -9.7597   34.3797 N.pl3   1  UNL1        0.0000
    398 N          -3.5206  -19.3453   36.1245 N.3     1  UNL1        0.0000
    399 O          -1.9505   -9.3269   31.8051 O.3     1  UNL1        0.0000
    400 O         -12.5680  -13.0208   35.0549 O.2     1  UNL1        0.0000
    401 O          -5.4962  -17.6920   36.7314 O.2     1  UNL1        0.0000
    402 O          -8.9859   -4.6344   30.1724 O.3     1  UNL1        0.0000
    403 O          -7.6312   -5.4828   31.7737 O.3     1  UNL1        0.0000
    404 O          -6.7444  -16.7674   35.0959 O.2     1  UNL1        0.0000
    405 O          -0.6146  -10.2792   30.2538 O.3     1  UNL1        0.0000
    406 O         -13.7432  -11.9269   36.6494 O.2     1  UNL1        0.0000
    407 O          -3.2859   -9.9564   29.4559 O.3     1  UNL1        0.0000
    408 O         -11.0935  -12.3667   37.3414 O.3     1  UNL1        0.0000
    409 O          -1.8727   -7.9401   29.3890 O.3     1  UNL1        0.0000
    410 O         -12.5820  -14.3150   37.5256 O.3     1  UNL1        0.0000
    411 O          -8.1422  -17.4982   37.3484 O.3     1  UNL1        0.0000
    412 O          -6.3398   -4.7668   29.4851 O.3     1  UNL1        0.0000
    413 O          -6.9056  -15.3870   37.6015 O.3     1  UNL1        0.0000
    414 O          -7.4966   -6.9345   29.3272 O.3     1  UNL1        0.0000
    415 O          -4.6446   -9.1132   31.8868 O.3     1  UNL1        0.0000
    416 O          -9.8683  -13.2571   34.9065 O.3     1  UNL1        0.0000
    417 O          -2.8638   -6.7851   31.6621 O.3     1  UNL1        0.0000
    418 O         -11.5701  -15.6432   35.2903 O.2     1  UNL1        0.0000
    419 O          -6.4845  -18.9835   39.0427 O.3     1  UNL1        0.0000
    420 O          -8.0422   -3.3679   27.8951 O.3     1  UNL1        0.0000
    421 O          -4.6891  -16.6603   38.9603 O.3     1  UNL1        0.0000
    422 O          -9.7351   -5.7624   27.8637 O.2     1  UNL1        0.0000
    423 O          -4.7221   -5.5295   31.6349 O.3     1  UNL1        0.0000
    424 O          -9.5948  -16.7103   35.1539 O.2     1  UNL1        0.0000
    425 O          -6.5107   -7.8468   31.8742 O.3     1  UNL1        0.0000
    426 O          -7.8885  -14.3391   35.0615 O.3     1  UNL1        0.0000
    427 O           0.2135   -9.1609   27.8531 O.3     1  UNL1        0.0000
    428 O         -14.6235  -12.9993   38.9760 O.3     1  UNL1        0.0000
    429 O          -1.5569  -11.5059   27.9310 O.2     1  UNL1        0.0000
    430 O         -12.7098  -10.7634   39.0234 O.3     1  UNL1        0.0000
    431 O          -4.8114   -7.4601   29.6165 O.3     1  UNL1        0.0000
    432 O          -9.6329  -14.8254   37.2224 O.3     1  UNL1        0.0000
    433 O          -2.3950   -9.0305   26.8019 O.3     1  UNL1        0.0000
    434 O          -7.1714   -5.8127   26.7171 O.3     1  UNL1        0.0000
    435 H          -9.3773  -11.6764   39.2835 H       9  UNL9        0.0000
    436 H          -7.8682  -11.8163   36.9668 H       9  UNL9        0.0000
    437 C          -8.3503  -11.9908   39.1366 C.2     9  UNL9        0.0000
    438 H          -5.3716  -10.9552   36.2645 H       9  UNL9        0.0000
    439 C          -7.6054  -12.0632   37.9875 C.2     9  UNL9        0.0000
    440 H          -8.0278  -11.4700   41.9933 H       9  UNL9        0.0000
    441 N          -7.5346  -12.4186   40.1750 N.pl3   9  UNL9        0.0000
    442 C          -4.6353  -11.5403   36.8303 C.3     9  UNL9        0.0000
    443 H          -4.2205  -10.9136   37.6298 H       9  UNL9        0.0000
    444 C          -7.9062  -12.4832   41.5955 C.3     9  UNL9        0.0000
    445 N          -6.3523  -12.5316   38.3367 N.pl3   9  UNL9        0.0000
    446 H          -8.8498  -13.0304   41.7023 H       9  UNL9        0.0000
    447 H          -3.8217  -11.7997   36.1360 H       9  UNL9        0.0000
    448 C          -6.3264  -12.7389   39.6665 C.3     9  UNL9        0.0000
    449 C          -5.2477  -12.8175   37.3917 C.3     9  UNL9        0.0000
    450 H          -5.6782  -13.4576   36.6120 H       9  UNL9        0.0000
    451 H          -7.1273  -13.0248   42.1442 H       9  UNL9        0.0000
    452 H          -5.4807  -13.1068   40.2359 H       9  UNL9        0.0000
    453 H          -4.5134  -13.4209   37.9397 H       9  UNL9        0.0000
    454 TI         -9.1068   17.5145   11.5221 Ti      1  UNL1        0.0000
    455 TI          1.9712   20.5772    1.9114 Ti      1  UNL1        0.0000
    456 TI         -4.5619   14.1997    9.6262 Ti      1  UNL1        0.0000
    457 TI         -2.6210   23.8910    3.8030 Ti      1  UNL1        0.0000
    458 TI         -4.2936   24.7794    1.8359 Ti      1  UNL1        0.0000
    459 TI         -3.0907   13.0350   11.5954 Ti      1  UNL1        0.0000
    460 TI         -7.6596   16.2141    9.6230 Ti      1  UNL1        0.0000
    461 TI          0.2554   21.6210    3.7601 Ti      1  UNL1        0.0000
    462 H          -2.4590   16.8825    7.1461 H       1  UNL1        0.0000
    463 H          -6.1446   11.2126    7.4318 H       1  UNL1        0.0000
    464 H          -0.9951   26.6768    6.0330 H       1  UNL1        0.0000
    465 H          -9.0943   21.5347   11.3539 H       1  UNL1        0.0000
    466 H           1.7973   16.4472    2.2210 H       1  UNL1        0.0000
    467 H         -12.8597   15.9020   11.1731 H       1  UNL1        0.0000
    468 H           5.6437   22.0550    2.1001 H       1  UNL1        0.0000
    469 H          -2.8593    8.8788   11.2909 H       1  UNL1        0.0000
    470 H          -8.1972   23.3955    2.1021 H       1  UNL1        0.0000
    471 H          -1.3197   18.8400    6.0605 H       1  UNL1        0.0000
    472 H          -6.0729   19.1842    7.4465 H       1  UNL1        0.0000
    473 H          -9.8109   13.4454    7.2428 H       1  UNL1        0.0000
    474 H          -3.4280   23.3558   -0.0849 H       1  UNL1        0.0000
    475 H           0.9511   22.0414    0.0859 H       1  UNL1        0.0000
    476 H          -5.6873   15.8747   11.1920 H       1  UNL1        0.0000
    477 H          -1.6891   22.1409    2.2071 H       1  UNL1        0.0000
    478 H          -2.4531   12.8546    6.1477 H       1  UNL1        0.0000
    479 H          -4.7922   25.0428    7.3036 H       1  UNL1        0.0000
    480 H         -12.1354   19.3243    9.1181 H       1  UNL1        0.0000
    481 H           4.8075   18.6267    4.3922 H       1  UNL1        0.0000
    482 H          -9.6722   17.6752    6.0048 H       1  UNL1        0.0000
    483 H          -7.2220   26.9680    4.3229 H       1  UNL1        0.0000
    484 H          -6.1181   21.3809    6.5328 H       1  UNL1        0.0000
    485 H          -4.7048   22.1451    5.8359 H       1  UNL1        0.0000
    486 H          -4.4584   27.9971    2.6235 H       1  UNL1        0.0000
    487 H           1.7612   14.3930    3.4206 H       1  UNL1        0.0000
    488 H           1.3390   14.8946   10.0472 H       1  UNL1        0.0000
    489 H          -0.0123   14.0868   10.8148 H       1  UNL1        0.0000
    490 H           3.8632   24.2287    6.3947 H       1  UNL1        0.0000
    491 H           2.4916   23.4971    5.5859 H       1  UNL1        0.0000
    492 H           1.9907   20.5873    8.6399 H       1  UNL1        0.0000
    493 H           1.4951   20.8538    6.9766 H       1  UNL1        0.0000
    494 H           0.9053   10.2686    9.5938 H       1  UNL1        0.0000
    495 H          -0.4305   11.2610   10.1548 H       1  UNL1        0.0000
    496 C           2.6432   20.0758    4.7567 C.3     1  UNL1        0.0000
    497 C          -9.9397   17.8815    8.7031 C.2     1  UNL1        0.0000
    498 C          -2.1953   12.6163    8.7570 C.3     1  UNL1        0.0000
    499 C          -5.0807   25.3224    4.6709 C.3     1  UNL1        0.0000
    500 C           3.4758   19.5033    5.8251 C.ar    1  UNL1        0.0000
    501 C         -10.8307   18.4573    7.6588 C.2     1  UNL1        0.0000
    502 C          -1.3448   11.9602    7.7503 C.ar    1  UNL1        0.0000
    503 C          -5.9266   25.9462    5.7273 C.ar    1  UNL1        0.0000
    504 C           3.1753   19.6927    7.2137 C.ar    1  UNL1        0.0000
    505 C         -10.5450   18.2551    6.2912 C.3     1  UNL1        0.0000
    506 C          -0.2584   11.0964    8.1111 C.ar    1  UNL1        0.0000
    507 C          -7.0055   26.7852    5.3717 C.ar    1  UNL1        0.0000
    508 C          -5.6298   25.6946    7.0626 C.ar    1  UNL1        0.0000
    509 C          -1.6202   12.1957    6.3833 C.ar    1  UNL1        0.0000
    510 C           4.6140   18.7499    5.4553 C.ar    1  UNL1        0.0000
    511 C         -11.9430   19.1919    8.0552 C.3     1  UNL1        0.0000
    512 C          -3.0365   20.1206    6.1476 C.ar    1  UNL1        0.0000
    513 C          -4.3376   17.9356    7.3431 C.ar    1  UNL1        0.0000
    514 C           0.7545   25.4382    6.0532 C.ar    1  UNL1        0.0000
    515 C          -7.9136   12.4179    7.3980 C.2     1  UNL1        0.0000
    516 C           1.9098   16.5295    0.0865 C.2     1  UNL1        0.0000
    517 C          -4.3552   28.8921    0.1296 C.2     1  UNL1        0.0000
    518 C           5.5966   21.9589   -0.0396 C.2     1  UNL1        0.0000
    519 C          -7.9959   23.4618   -0.0506 C.2     1  UNL1        0.0000
    520 C          -2.3140   21.1998    5.4533 C.3     1  UNL1        0.0000
    521 C          -5.0345   16.7880    7.9958 C.3     1  UNL1        0.0000
    522 C           0.0814   24.3994    5.2651 C.3     1  UNL1        0.0000
    523 C          -7.2680   13.5091    8.1793 C.2     1  UNL1        0.0000
    524 C           1.9634   18.0184    0.0897 C.2     1  UNL1        0.0000
    525 C          -4.3736   27.4243    0.0835 C.2     1  UNL1        0.0000
    526 C           4.3076   21.2499   -0.0148 C.2     1  UNL1        0.0000
    527 C          -6.6977   24.1973   -0.0140 C.2     1  UNL1        0.0000
    528 C          -4.4063   20.2483    6.5480 C.ar    1  UNL1        0.0000
    529 C          -2.9812   17.8183    6.9703 C.ar    1  UNL1        0.0000
    530 C           0.0344   26.6115    6.3766 C.ar    1  UNL1        0.0000
    531 C          -7.1777   11.2778    7.0949 C.3     1  UNL1        0.0000
    532 C           1.8195   15.8627    1.3031 C.2     1  UNL1        0.0000
    533 C          -9.1196   22.1204   12.2698 C.ar    1  UNL1        0.0000
    534 C           6.1748   22.3366    1.1941 C.2     1  UNL1        0.0000
    535 C         -13.3920   15.6232   12.0809 C.3     1  UNL1        0.0000
    536 C           2.1167   25.3046    6.4768 C.ar    1  UNL1        0.0000
    537 C          -9.2590   12.5445    6.9907 C.3     1  UNL1        0.0000
    538 C          -2.3579   18.9016    6.3781 C.ar    1  UNL1        0.0000
    539 C          -5.0310   19.1236    7.1370 C.ar    1  UNL1        0.0000
    540 C           1.4020   14.8288   12.0987 C.ar    1  UNL1        0.0000
    541 C          -8.6414   23.1076    1.1539 C.3     1  UNL1        0.0000
    542 C          -2.9240    8.3361   12.2296 C.ar    1  UNL1        0.0000
    543 C          -4.3950   29.6173    1.3648 C.2     1  UNL1        0.0000
    544 N          -5.1132   21.4137    6.4163 N.pl3   1  UNL1        0.0000
    545 N          -4.5285   29.0117    2.5817 N.pl3   1  UNL1        0.0000
    546 N           0.9339   14.4601   10.8666 N.pl3   1  UNL1        0.0000
    547 N           2.8639   24.1834    6.2403 N.pl3   1  UNL1        0.0000
    548 N           2.0733   20.3652    7.6563 N.pl3   1  UNL1        0.0000
    549 N           0.0536   10.7796    9.4011 N.pl3   1  UNL1        0.0000
    550 O           1.6236   20.7981    5.0817 O.3     1  UNL1        0.0000
    551 O          -8.9938   17.1041    8.3315 O.2     1  UNL1        0.0000
    552 O          -1.9220   12.4329   10.0080 O.3     1  UNL1        0.0000
    553 O          -5.4117   25.4906    3.4490 O.3     1  UNL1        0.0000
    554 O          -4.0570   24.6421    5.0502 O.3     1  UNL1        0.0000
    555 O          -3.1702   13.3575    8.3725 O.3     1  UNL1        0.0000
    556 O           2.9596   19.8457    3.5304 O.3     1  UNL1        0.0000
    557 O         -10.1690   18.1981    9.9260 O.2     1  UNL1        0.0000
    558 O           0.2883   20.1685    2.7325 O.3     1  UNL1        0.0000
    559 O          -7.5193   17.7583   10.6180 O.3     1  UNL1        0.0000
    560 O           1.7015   22.1848    2.6656 O.3     1  UNL1        0.0000
    561 O          -9.0078   15.8099   10.8022 O.3     1  UNL1        0.0000
    562 O          -4.5680   12.6267   10.6249 O.3     1  UNL1        0.0000
    563 O          -2.7656   25.3582    2.7616 O.3     1  UNL1        0.0000
    564 O          -3.3314   14.7380   10.8781 O.3     1  UNL1        0.0000
    565 O          -3.9224   23.1904    2.6038 O.3     1  UNL1        0.0000
    566 O          -1.0704   21.0117    5.1633 O.3     1  UNL1        0.0000
    567 O          -6.2941   16.8678    8.1831 O.3     1  UNL1        0.0000
    568 O           0.7104   23.3398    4.9387 O.3     1  UNL1        0.0000
    569 O          -7.9959   14.4818    8.5669 O.2     1  UNL1        0.0000
    570 O          -2.9103   11.1415   12.3192 O.3     1  UNL1        0.0000
    571 O          -4.4681   26.7570    1.1716 O.2     1  UNL1        0.0000
    572 O          -1.1149   13.4647   12.2369 O.3     1  UNL1        0.0000
    573 O          -6.1609   24.3626    1.1403 O.2     1  UNL1        0.0000
    574 O          -1.1479   24.5954    4.9115 O.3     1  UNL1        0.0000
    575 O          -6.0206   13.4147    8.4305 O.2     1  UNL1        0.0000
    576 O          -2.9365   22.2781    5.1508 O.3     1  UNL1        0.0000
    577 O          -4.3143   15.7859    8.3381 O.3     1  UNL1        0.0000
    578 O           3.7876   20.9641    1.1297 O.2     1  UNL1        0.0000
    579 O         -11.0493   17.1256   12.2526 O.2     1  UNL1        0.0000
    580 O           2.0173   18.6191    1.2076 O.2     1  UNL1        0.0000
    581 O          -9.1356   19.3615   12.3000 O.3     1  UNL1        0.0000
    582 O          -1.2372   22.6648    2.8931 O.3     1  UNL1        0.0000
    583 O          -6.0587   15.2995   10.4990 O.3     1  UNL1        0.0000
    584 O           1.1792   21.0945    0.0785 O.3     1  UNL1        0.0000
    585 O          -3.5972   24.3123   -0.0063 O.3     1  UNL1        0.0000
    586 H          -5.8031   18.4486   12.5601 H      10  UNL10       0.0000
    587 H          -4.2940   18.3087   10.2434 H      10  UNL10       0.0000
    588 C          -4.7761   18.1341   12.4132 C.2    10  UNL10       0.0000
    589 H          -1.7975   19.1698    9.5411 H      10  UNL10       0.0000
    590 C          -4.0313   18.0618   11.2641 C.2    10  UNL10       0.0000
    591 H          -4.4536   18.6550   15.2699 H      10  UNL10       0.0000
    592 N          -3.9604   17.7063   13.4516 N.pl3  10  UNL10       0.0000
    593 C          -1.0611   18.5847   10.1069 C.3    10  UNL10       0.0000
    594 H          -0.6463   19.2113   10.9064 H      10  UNL10       0.0000
    595 C          -4.3320   17.6417   14.8721 C.3    10  UNL10       0.0000
    596 N          -2.7781   17.5934   11.6133 N.pl3  10  UNL10       0.0000
    597 H          -5.2756   17.0946   14.9789 H      10  UNL10       0.0000
    598 H          -0.2475   18.3252    9.4126 H      10  UNL10       0.0000
    599 C          -2.7522   17.3860   12.9431 C.3    10  UNL10       0.0000
    600 C          -1.6735   17.3074   10.6683 C.3    10  UNL10       0.0000
    601 H          -2.1040   16.6674    9.8886 H      10  UNL10       0.0000
    602 H          -3.5532   17.1002   15.4208 H      10  UNL10       0.0000
    603 H          -1.9065   17.0182   13.5125 H      10  UNL10       0.0000
    604 H          -0.9392   16.7041   11.2163 H      10  UNL10       0.0000
    605 TI        -13.9623   10.0347   24.8831 Ti      1  UNL1        0.0000
    606 TI         -2.8843   13.0975   15.2724 Ti      1  UNL1        0.0000
    607 TI         -9.4174    6.7199   22.9872 Ti      1  UNL1        0.0000
    608 TI         -7.4765   16.4112   17.1640 Ti      1  UNL1        0.0000
    609 TI         -9.1492   17.2997   15.1969 Ti      1  UNL1        0.0000
    610 TI         -7.9462    5.5552   24.9564 Ti      1  UNL1        0.0000
    611 TI        -12.5151    8.7344   22.9840 Ti      1  UNL1        0.0000
    612 TI         -4.6002   14.1412   17.1211 Ti      1  UNL1        0.0000
    613 H          -7.3145    9.4027   20.5071 H       1  UNL1        0.0000
    614 H         -11.0001    3.7329   20.7928 H       1  UNL1        0.0000
    615 H          -5.8506   19.1971   19.3940 H       1  UNL1        0.0000
    616 H         -13.9498   14.0550   24.7149 H       1  UNL1        0.0000
    617 H          -3.0582    8.9674   15.5820 H       1  UNL1        0.0000
    618 H         -17.7152    8.4223   24.5341 H       1  UNL1        0.0000
    619 H           0.7882   14.5753   15.4611 H       1  UNL1        0.0000
    620 H          -7.7149    1.3990   24.6519 H       1  UNL1        0.0000
    621 H         -13.0527   15.9158   15.4631 H       1  UNL1        0.0000
    622 H          -6.1752   11.3603   19.4215 H       1  UNL1        0.0000
    623 H         -10.9284   11.7044   20.8075 H       1  UNL1        0.0000
    624 H         -14.6664    5.9656   20.6038 H       1  UNL1        0.0000
    625 H          -8.2835   15.8760   13.2761 H       1  UNL1        0.0000
    626 H          -3.9044   14.5617   13.4469 H       1  UNL1        0.0000
    627 H         -10.5428    8.3949   24.5530 H       1  UNL1        0.0000
    628 H          -6.5447   14.6611   15.5681 H       1  UNL1        0.0000
    629 H          -7.3086    5.3749   19.5087 H       1  UNL1        0.0000
    630 H          -9.6477   17.5631   20.6646 H       1  UNL1        0.0000
    631 H         -16.9910   11.8446   22.4791 H       1  UNL1        0.0000
    632 H          -0.0480   11.1469   17.7532 H       1  UNL1        0.0000
    633 H         -14.5278   10.1954   19.3658 H       1  UNL1        0.0000
    634 H         -12.0775   19.4882   17.6839 H       1  UNL1        0.0000
    635 H         -10.9737   13.9012   19.8937 H       1  UNL1        0.0000
    636 H          -9.5603   14.6653   19.1969 H       1  UNL1        0.0000
    637 H          -9.3139   20.5173   15.9845 H       1  UNL1        0.0000
    638 H          -3.0943    6.9133   16.7816 H       1  UNL1        0.0000
    639 H          -3.5166    7.4149   23.4082 H       1  UNL1        0.0000
    640 H          -4.8678    6.6071   24.1758 H       1  UNL1        0.0000
    641 H          -0.9923   16.7490   19.7557 H       1  UNL1        0.0000
    642 H          -2.3639   16.0174   18.9469 H       1  UNL1        0.0000
    643 H          -2.8648   13.1075   22.0009 H       1  UNL1        0.0000
    644 H          -3.3605   13.3741   20.3376 H       1  UNL1        0.0000
    645 H          -3.9502    2.7889   22.9548 H       1  UNL1        0.0000
    646 H          -5.2860    3.7813   23.5158 H       1  UNL1        0.0000
    647 C          -2.2123   12.5960   18.1177 C.3     1  UNL1        0.0000
    648 C         -14.7952   10.4017   22.0641 C.2     1  UNL1        0.0000
    649 C          -7.0508    5.1365   22.1180 C.3     1  UNL1        0.0000
    650 C          -9.9362   17.8427   18.0319 C.3     1  UNL1        0.0000
    651 C          -1.3797   12.0236   19.1861 C.ar    1  UNL1        0.0000
    652 C         -15.6862   10.9775   21.0198 C.2     1  UNL1        0.0000
    653 C          -6.2004    4.4805   21.1113 C.ar    1  UNL1        0.0000
    654 C         -10.7821   18.4664   19.0883 C.ar    1  UNL1        0.0000
    655 C          -1.6802   12.2130   20.5747 C.ar    1  UNL1        0.0000
    656 C         -15.4005   10.7753   19.6522 C.3     1  UNL1        0.0000
    657 C          -5.1140    3.6166   21.4721 C.ar    1  UNL1        0.0000
    658 C         -11.8610   19.3055   18.7327 C.ar    1  UNL1        0.0000
    659 C         -10.4854   18.2149   20.4236 C.ar    1  UNL1        0.0000
    660 C          -6.4757    4.7159   19.7443 C.ar    1  UNL1        0.0000
    661 C          -0.2415   11.2702   18.8163 C.ar    1  UNL1        0.0000
    662 C         -16.7985   11.7121   21.4162 C.3     1  UNL1        0.0000
    663 C          -7.8920   12.6408   19.5086 C.ar    1  UNL1        0.0000
    664 C          -9.1931   10.4559   20.7041 C.ar    1  UNL1        0.0000
    665 C          -4.1011   17.9585   19.4142 C.ar    1  UNL1        0.0000
    666 C         -12.7691    4.9382   20.7590 C.2     1  UNL1        0.0000
    667 C          -2.9457    9.0497   13.4475 C.ar    1  UNL1        0.0000
    668 C          -9.2107   21.4123   13.4906 C.ar    1  UNL1        0.0000
    669 C           0.7410   14.4792   13.3214 C.ar    1  UNL1        0.0000
    670 C         -12.8514   15.9821   13.3104 C.2     1  UNL1        0.0000
    671 C          -7.1695   13.7201   18.8143 C.3     1  UNL1        0.0000
    672 C          -9.8901    9.3082   21.3568 C.3     1  UNL1        0.0000
    673 C          -4.7741   16.9196   18.6261 C.3     1  UNL1        0.0000
    674 C         -12.1235    6.0294   21.5403 C.2     1  UNL1        0.0000
    675 C          -2.8921   10.5387   13.4507 C.3     1  UNL1        0.0000
    676 C          -9.2291   19.9445   13.4445 C.3     1  UNL1        0.0000
    677 C          -0.5479   13.7701   13.3462 C.3     1  UNL1        0.0000
    678 C         -11.5532   16.7176   13.3470 C.2     1  UNL1        0.0000
    679 C          -9.2618   12.7686   19.9090 C.ar    1  UNL1        0.0000
    680 C          -7.8368   10.3385   20.3313 C.ar    1  UNL1        0.0000
    681 C          -4.8211   19.1317   19.7376 C.ar    1  UNL1        0.0000
    682 C         -12.0332    3.7980   20.4559 C.3     1  UNL1        0.0000
    683 C          -3.0361    8.3830   14.6641 C.ar    1  UNL1        0.0000
    684 C         -13.9751   14.6407   25.6308 C.ar    1  UNL1        0.0000
    685 C           1.3193   14.8569   14.5551 C.ar    1  UNL1        0.0000
    686 C         -18.2475    8.1434   25.4419 C.3     1  UNL1        0.0000
    687 C          -2.7388   17.8249   19.8378 C.ar    1  UNL1        0.0000
    688 C         -14.1145    5.0647   20.3517 C.3     1  UNL1        0.0000
    689 C          -7.2134   11.4219   19.7391 C.ar    1  UNL1        0.0000
    690 C          -9.8865   11.6439   20.4980 C.ar    1  UNL1        0.0000
    691 C          -3.4536    7.3490   25.4597 C.ar    1  UNL1        0.0000
    692 C         -13.4969   15.6279   14.5149 C.3     1  UNL1        0.0000
    693 C          -7.7795    0.8563   25.5906 C.ar    1  UNL1        0.0000
    694 C          -9.2505   22.1376   14.7258 C.ar    1  UNL1        0.0000
    695 N          -9.9687   13.9340   19.7773 N.pl3   1  UNL1        0.0000
    696 N          -9.3841   21.5319   15.9427 N.pl3   1  UNL1        0.0000
    697 N          -3.9217    6.9803   24.2276 N.pl3   1  UNL1        0.0000
    698 N          -1.9916   16.7037   19.6013 N.pl3   1  UNL1        0.0000
    699 N          -2.7822   12.8855   21.0173 N.pl3   1  UNL1        0.0000
    700 N          -4.8019    3.2999   22.7621 N.pl3   1  UNL1        0.0000
    701 O          -3.2319   13.3183   18.4427 O.3     1  UNL1        0.0000
    702 O         -13.8493    9.6244   21.6925 O.2     1  UNL1        0.0000
    703 O          -6.7776    4.9532   23.3690 O.3     1  UNL1        0.0000
    704 O         -10.2672   18.0108   16.8100 O.3     1  UNL1        0.0000
    705 O          -8.9126   17.1624   18.4112 O.3     1  UNL1        0.0000
    706 O          -8.0257    5.8778   21.7335 O.3     1  UNL1        0.0000
    707 O          -1.8959   12.3660   16.8914 O.3     1  UNL1        0.0000
    708 O         -15.0245   10.7183   23.2870 O.2     1  UNL1        0.0000
    709 O          -4.5673   12.6888   16.0935 O.3     1  UNL1        0.0000
    710 O         -12.3748   10.2785   23.9790 O.3     1  UNL1        0.0000
    711 O          -3.1540   14.7051   16.0266 O.3     1  UNL1        0.0000
    712 O         -13.8634    8.3302   24.1632 O.3     1  UNL1        0.0000
    713 O          -9.4235    5.1470   23.9859 O.3     1  UNL1        0.0000
    714 O          -7.6211   17.8784   16.1226 O.3     1  UNL1        0.0000
    715 O          -8.1869    7.2582   24.2391 O.3     1  UNL1        0.0000
    716 O          -8.7779   15.7107   15.9648 O.3     1  UNL1        0.0000
    717 O          -5.9260   13.5320   18.5243 O.3     1  UNL1        0.0000
    718 O         -11.1496    9.3881   21.5441 O.3     1  UNL1        0.0000
    719 O          -4.1451   15.8601   18.2997 O.3     1  UNL1        0.0000
    720 O         -12.8515    7.0020   21.9279 O.2     1  UNL1        0.0000
    721 O          -7.7658    3.6617   25.6802 O.3     1  UNL1        0.0000
    722 O          -9.3236   19.2773   14.5326 O.3     1  UNL1        0.0000
    723 O          -5.9704    5.9849   25.5979 O.3     1  UNL1        0.0000
    724 O         -11.0164   16.8828   14.5013 O.2     1  UNL1        0.0000
    725 O          -6.0034   17.1157   18.2725 O.3     1  UNL1        0.0000
    726 O         -10.8761    5.9349   21.7915 O.2     1  UNL1        0.0000
    727 O          -7.7921   14.7984   18.5118 O.3     1  UNL1        0.0000
    728 O          -9.1698    8.3061   21.6991 O.3     1  UNL1        0.0000
    729 O          -1.0679   13.4843   14.4907 O.3     1  UNL1        0.0000
    730 O         -15.9048    9.6459   25.6136 O.2     1  UNL1        0.0000
    731 O          -2.8383   11.1393   14.5686 O.3     1  UNL1        0.0000
    732 O         -13.9911   11.8818   25.6610 O.3     1  UNL1        0.0000
    733 O          -6.0928   15.1851   16.2541 O.3     1  UNL1        0.0000
    734 O         -10.9143    7.8198   23.8600 O.3     1  UNL1        0.0000
    735 O          -3.6763   13.6147   13.4395 O.3     1  UNL1        0.0000
    736 O          -8.4527   16.8325   13.3547 O.3     1  UNL1        0.0000
    737 H         -10.6587   10.9688   25.9211 H      11  UNL11       0.0000
    738 H          -9.1495   10.8289   23.6044 H      11  UNL11       0.0000
    739 C          -9.6316   10.6544   25.7742 C.2    11  UNL11       0.0000
    740 H          -6.6530   11.6900   22.9021 H      11  UNL11       0.0000
    741 C          -8.8868   10.5820   24.6251 C.2    11  UNL11       0.0000
    742 H          -9.3092   11.1752   28.6309 H      11  UNL11       0.0000
    743 N          -8.8160   10.2266   26.8126 N.pl3  11  UNL11       0.0000
    744 C          -5.9166   11.1049   23.4679 C.3    11  UNL11       0.0000
    745 H          -5.5019   11.7316   24.2674 H      11  UNL11       0.0000
    746 C          -9.1876   10.1620   28.2331 C.3    11  UNL11       0.0000
    747 N          -7.6336   10.1136   24.9743 N.pl3  11  UNL11       0.0000
    748 H         -10.1311    9.6148   28.3399 H      11  UNL11       0.0000
    749 H          -5.1031   10.8455   22.7736 H      11  UNL11       0.0000
    750 C          -7.6078    9.9063   26.3041 C.3    11  UNL11       0.0000
    751 C          -6.5291    9.8277   24.0293 C.3    11  UNL11       0.0000
    752 H          -6.9595    9.1876   23.2496 H      11  UNL11       0.0000
    753 H          -8.4087    9.6204   28.7818 H      11  UNL11       0.0000
    754 H          -6.7621    9.5384   26.8735 H      11  UNL11       0.0000
    755 H          -5.7947    9.2243   24.5773 H      11  UNL11       0.0000
    756 TI        -18.8178    2.5550   38.2441 Ti      1  UNL1        0.0000
    757 TI         -7.7399    5.6177   28.6334 Ti      1  UNL1        0.0000
    758 TI        -14.2729   -0.7598   36.3482 Ti      1  UNL1        0.0000
    759 TI        -12.3321    8.9315   30.5250 Ti      1  UNL1        0.0000
    760 TI        -14.0047    9.8199   28.5579 Ti      1  UNL1        0.0000
    761 TI        -12.8017   -1.9245   38.3174 Ti      1  UNL1        0.0000
    762 TI        -17.3706    1.2547   36.3450 Ti      1  UNL1        0.0000
    763 TI         -9.4557    6.6615   30.4821 Ti      1  UNL1        0.0000
    764 H         -12.1700    1.9230   33.8681 H       1  UNL1        0.0000
    765 H         -15.8556   -3.7469   34.1538 H       1  UNL1        0.0000
    766 H         -10.7062   11.7173   32.7550 H       1  UNL1        0.0000
    767 H         -18.8054    6.5753   38.0759 H       5  UNL5        0.0000
    768 H          -7.9137    1.4877   28.9430 H       1  UNL1        0.0000
    769 H         -22.5708    0.9425   37.8951 H       6  UNL6        0.0000
    770 H          -4.0673    7.0955   28.8221 H       1  UNL1        0.0000
    771 H         -12.5704   -6.0807   38.0129 H       1  UNL1        0.0000
    772 H         -17.9083    8.4360   28.8241 H       1  UNL1        0.0000
    773 H         -11.0308    3.8805   32.7825 H       1  UNL1        0.0000
    774 H         -15.7840    4.2247   34.1685 H       1  UNL1        0.0000
    775 H         -19.5220   -1.5141   33.9648 H       1  UNL1        0.0000
    776 H         -13.1390    8.3963   26.6371 H       1  UNL1        0.0000
    777 H          -8.7599    7.0819   26.8079 H       1  UNL1        0.0000
    778 H         -15.3984    0.9152   37.9140 H       1  UNL1        0.0000
    779 H         -11.4002    7.1814   28.9291 H       1  UNL1        0.0000
    780 H         -12.1641   -2.1048   32.8697 H       1  UNL1        0.0000
    781 H         -14.5032   10.0834   34.0256 H       1  UNL1        0.0000
    782 H         -21.8465    4.3648   35.8401 H       1  UNL1        0.0000
    783 H          -4.9035    3.6672   31.1142 H       1  UNL1        0.0000
    784 H         -19.3833    2.7157   32.7268 H       1  UNL1        0.0000
    785 H         -16.9330   12.0085   31.0449 H       1  UNL1        0.0000
    786 H         -15.8292    6.4215   33.2547 H       1  UNL1        0.0000
    787 H         -14.4158    7.1856   32.5579 H       1  UNL1        0.0000
    788 H         -14.1695   13.0376   29.3455 H       1  UNL1        0.0000
    789 H          -7.9499   -0.5665   30.1426 H       1  UNL1        0.0000
    790 H          -8.3721   -0.0649   36.7692 H       7  UNL7        0.0000
    791 H          -9.7233   -0.8727   37.5368 H       7  UNL7        0.0000
    792 H          -5.8478    9.2692   33.1167 H       1  UNL1        0.0000
    793 H          -7.2195    8.5376   32.3079 H       1  UNL1        0.0000
    794 H          -7.7204    5.6278   35.3619 H       1  UNL1        0.0000
    795 H          -8.2160    5.8943   33.6986 H       1  UNL1        0.0000
    796 H          -8.8057   -4.6908   36.3158 H       1  UNL1        0.0000
    797 H         -10.1415   -3.6984   36.8768 H       1  UNL1        0.0000
    798 C          -7.0678    5.1163   31.4787 C.3     1  UNL1        0.0000
    799 C         -19.6507    2.9220   35.4251 C.2     1  UNL1        0.0000
    800 C         -11.9064   -2.3432   35.4790 C.3     1  UNL1        0.0000
    801 C         -14.7917   10.3629   31.3929 C.3     1  UNL1        0.0000
    802 C          -6.2352    4.5439   32.5470 C.ar    1  UNL1        0.0000
    803 C         -20.5418    3.4978   34.3808 C.2     1  UNL1        0.0000
    804 C         -11.0559   -2.9993   34.4723 C.ar    1  UNL1        0.0000
    805 C         -15.6376   10.9867   32.4493 C.ar    1  UNL1        0.0000
    806 C          -6.5358    4.7333   33.9357 C.ar    1  UNL1        0.0000
    807 C         -20.2560    3.2956   33.0132 C.3     1  UNL1        0.0000
    808 C          -9.9695   -3.8631   34.8331 C.ar    1  UNL1        0.0000
    809 C         -16.7165   11.8257   32.0937 C.ar    1  UNL1        0.0000
    810 C         -15.3409   10.7351   33.7846 C.ar    1  UNL1        0.0000
    811 C         -11.3312   -2.7638   33.1053 C.ar    1  UNL1        0.0000
    812 C          -5.0971    3.7904   32.1773 C.ar    1  UNL1        0.0000
    813 C         -21.6540    4.2324   34.7772 C.3     1  UNL1        0.0000
    814 C         -12.7476    5.1611   32.8696 C.ar    1  UNL1        0.0000
    815 C         -14.0486    2.9762   34.0651 C.ar    1  UNL1        0.0000
    816 C          -8.9566   10.4787   32.7752 C.ar    1  UNL1        0.0000
    817 C         -17.6246   -2.5416   34.1200 C.2     1  UNL1        0.0000
    818 C          -7.8013    1.5700   26.8085 C.ar    1  UNL1        0.0000
    819 C         -14.0662   13.9326   26.8516 C.ar    1  UNL1        0.0000
    820 C          -4.1145    6.9995   26.6824 C.ar    1  UNL1        0.0000
    821 C         -17.7070    8.5023   26.6714 C.2     1  UNL1        0.0000
    822 C         -12.0251    6.2404   32.1753 C.3     1  UNL1        0.0000
    823 C         -14.7456    1.8285   34.7178 C.3     1  UNL1        0.0000
    824 C          -9.6296    9.4399   31.9871 C.3     1  UNL1        0.0000
    825 C         -16.9790   -1.4504   34.9013 C.2     1  UNL1        0.0000
    826 C          -7.7476    3.0589   26.8117 C.3     1  UNL1        0.0000
    827 C         -14.0847   12.4648   26.8055 C.3     1  UNL1        0.0000
    828 C          -5.4035    6.2904   26.7072 C.3     1  UNL1        0.0000
    829 C         -16.4087    9.2378   26.7080 C.2     1  UNL1        0.0000
    830 C         -14.1173    5.2889   33.2700 C.ar    1  UNL1        0.0000
    831 C         -12.6923    2.8588   33.6923 C.ar    1  UNL1        0.0000
    832 C          -9.6766   11.6520   33.0986 C.ar    1  UNL1        0.0000
    833 C         -16.8887   -3.6817   33.8169 C.3     1  UNL1        0.0000
    834 C          -7.8916    0.9032   28.0251 C.ar    1  UNL1        0.0000
    835 C         -18.8307    7.1609   38.9918 C.2     5  UNL5        0.0000
    836 C          -3.5362    7.3771   27.9161 C.ar    1  UNL1        0.0000
    837 C         -23.1031    0.6637   38.8029 C.3    12  UNL12       0.0000
    838 C          -7.5943   10.3452   33.1988 C.ar    1  UNL1        0.0000
    839 C         -18.9700   -2.4150   33.7127 C.3     1  UNL1        0.0000
    840 C         -12.0689    3.9421   33.1001 C.ar    1  UNL1        0.0000
    841 C         -14.7421    4.1641   33.8590 C.ar    1  UNL1        0.0000
    842 C          -8.3091   -0.1307   38.8207 C.2     7  UNL7        0.0000
    843 C         -18.3524    8.1481   27.8759 C.3     1  UNL1        0.0000
    844 C         -12.6350   -6.6234   38.9516 C.2     1  UNL1        0.0000
    845 C         -14.1060   14.6579   28.0868 C.ar    1  UNL1        0.0000
    846 N         -14.8243    6.4542   33.1383 N.pl3   1  UNL1        0.0000
    847 N         -14.2396   14.0522   29.3037 N.pl3   1  UNL1        0.0000
    848 N          -8.7772   -0.4994   37.5886 N.pl3   7  UNL7        0.0000
    849 N          -6.8471    9.2239   32.9623 N.pl3   1  UNL1        0.0000
    850 N          -7.6377    5.4058   34.3783 N.pl3   1  UNL1        0.0000
    851 N          -9.6574   -4.1799   36.1231 N.pl3   1  UNL1        0.0000
    852 O          -8.0874    5.8386   31.8036 O.3     1  UNL1        0.0000
    853 O         -18.7049    2.1447   35.0535 O.2     1  UNL1        0.0000
    854 O         -11.6331   -2.5266   36.7300 O.3     1  UNL1        0.0000
    855 O         -15.1227   10.5311   30.1710 O.3     1  UNL1        0.0000
    856 O         -13.7681    9.6826   31.7722 O.3     1  UNL1        0.0000
    857 O         -12.8813   -1.6019   35.0945 O.3     1  UNL1        0.0000
    858 O          -6.7515    4.8862   30.2524 O.3     1  UNL1        0.0000
    859 O         -19.8800    3.2386   36.6480 O.2     1  UNL1        0.0000
    860 O          -9.4228    5.2090   29.4545 O.3     1  UNL1        0.0000
    861 O         -17.2304    2.7988   37.3400 O.3     1  UNL1        0.0000
    862 O          -8.0095    7.2253   29.3876 O.3     1  UNL1        0.0000
    863 O         -18.7189    0.8504   37.5242 O.3     1  UNL1        0.0000
    864 O         -14.2790   -2.3328   37.3469 O.3     1  UNL1        0.0000
    865 O         -12.4767   10.3987   29.4836 O.3     1  UNL1        0.0000
    866 O         -13.0425   -0.2215   37.6001 O.3     1  UNL1        0.0000
    867 O         -13.6334    8.2310   29.3258 O.3     1  UNL1        0.0000
    868 O         -10.7815    6.0523   31.8853 O.3     1  UNL1        0.0000
    869 O         -16.0051    1.9084   34.9051 O.3     1  UNL1        0.0000
    870 O          -9.0006    8.3803   31.6607 O.3     1  UNL1        0.0000
    871 O         -17.7070   -0.4777   35.2889 O.2     1  UNL1        0.0000
    872 O         -12.6213   -3.8180   39.0412 O.3     1  UNL1        0.0000
    873 O         -14.1791   11.7976   27.8936 O.3     1  UNL1        0.0000
    874 O         -10.8259   -1.4948   38.9589 O.3     1  UNL1        0.0000
    875 O         -15.8719    9.4031   27.8623 O.2     1  UNL1        0.0000
    876 O         -10.8589    9.6359   31.6335 O.3     1  UNL1        0.0000
    877 O         -15.7317   -1.5448   35.1525 O.2     1  UNL1        0.0000
    878 O         -12.6476    7.3186   31.8728 O.3     1  UNL1        0.0000
    879 O         -14.0253    0.8264   35.0601 O.3     1  UNL1        0.0000
    880 O          -5.9234    6.0046   27.8517 O.3     1  UNL1        0.0000
    881 O         -20.7604    2.1662   38.9746 O.3     1  UNL1        0.0000
    882 O          -7.6938    3.6596   27.9296 O.3     1  UNL1        0.0000
    883 O         -18.8467    4.4020   39.0220 O.3     1  UNL1        0.0000
    884 O         -10.9483    7.7053   29.6151 O.3     1  UNL1        0.0000
    885 O         -15.7698    0.3401   37.2210 O.3     1  UNL1        0.0000
    886 O          -8.5319    6.1350   26.8005 O.3     1  UNL1        0.0000
    887 O         -13.3083    9.3528   26.7157 O.3     1  UNL1        0.0000
    888 H         -15.5142    3.4891   39.2821 H      13  UNL13       0.0000
    889 H         -14.0051    3.3492   36.9654 H      13  UNL13       0.0000
    890 C         -14.4871    3.1746   39.1352 C.2    13  UNL13       0.0000
    891 H         -11.5085    4.2103   36.2631 H      13  UNL13       0.0000
    892 C         -13.7423    3.1023   37.9861 C.2    13  UNL13       0.0000
    893 H         -14.1647    3.6955   41.9919 H      13  UNL13       0.0000
    894 N         -13.6715    2.7468   40.1736 N.pl3  13  UNL13       0.0000
    895 C         -10.7722    3.6252   36.8289 C.3    13  UNL13       0.0000
    896 H         -10.3574    4.2519   37.6284 H      13  UNL13       0.0000
    897 C         -14.0431    2.6822   41.5941 C.3    13  UNL13       0.0000
    898 N         -12.4892    2.6339   38.3353 N.pl3  13  UNL13       0.0000
    899 H         -14.9866    2.1351   41.7009 H      13  UNL13       0.0000
    900 H          -9.9586    3.3657   36.1346 H      13  UNL13       0.0000
    901 C         -12.4633    2.4265   39.6651 C.3    13  UNL13       0.0000
    902 C         -11.3846    2.3479   37.3903 C.3    13  UNL13       0.0000
    903 H         -11.8151    1.7079   36.6106 H      13  UNL13       0.0000
    904 H         -13.2642    2.1407   42.1428 H      13  UNL13       0.0000
    905 H         -11.6176    2.0587   40.2345 H      13  UNL13       0.0000
    906 H         -10.6503    1.7446   37.9383 H      13  UNL13       0.0000
    907 TI        -15.2436   32.6799   11.5207 Ti      1  UNL1        0.0000
    908 TI         -4.1657   35.7427    1.9100 Ti      1  UNL1        0.0000
    909 TI        -10.6988   29.3651    9.6248 Ti      1  UNL1        0.0000
    910 TI         -8.7579   39.0564    3.8016 Ti      1  UNL1        0.0000
    911 TI        -10.4305   39.9449    1.8345 Ti      1  UNL1        0.0000
    912 TI         -9.2275   28.2004   11.5940 Ti      1  UNL1        0.0000
    913 TI        -13.7964   31.3796    9.6216 Ti      1  UNL1        0.0000
    914 TI         -5.8815   36.7864    3.7587 Ti      1  UNL1        0.0000
    915 H          -8.5959   32.0479    7.1447 H       1  UNL1        0.0000
    916 H         -12.2814   26.3781    7.4304 H       1  UNL1        0.0000
    917 H          -7.1320   41.8423    6.0316 H       1  UNL1        0.0000
    918 H         -15.2312   36.7002   11.3525 H       1  UNL1        0.0000
    919 H          -4.3395   31.6126    2.2196 H       1  UNL1        0.0000
    920 H         -18.9966   31.0675   11.1717 H       1  UNL1        0.0000
    921 H          -0.4931   37.2205    2.0987 H       1  UNL1        0.0000
    922 H          -8.9962   24.0442   11.2895 H       1  UNL1        0.0000
    923 H         -14.3341   38.5610    2.1007 H       1  UNL1        0.0000
    924 H          -7.4566   34.0055    6.0591 H       1  UNL1        0.0000
    925 H         -12.2098   34.3496    7.4450 H       1  UNL1        0.0000
    926 H         -15.9478   28.6108    7.2414 H       1  UNL1        0.0000
    927 H          -9.5648   38.5212   -0.0863 H       1  UNL1        0.0000
    928 H          -5.1857   37.2069    0.0845 H       1  UNL1        0.0000
    929 H         -11.8242   31.0401   11.1906 H       1  UNL1        0.0000
    930 H          -7.8260   37.3063    2.2057 H       1  UNL1        0.0000
    931 H          -8.5899   28.0201    6.1463 H       1  UNL1        0.0000
    932 H         -10.9290   40.2083    7.3022 H       1  UNL1        0.0000
    933 H         -18.2723   34.4898    9.1167 H       1  UNL1        0.0000
    934 H          -1.3293   33.7921    4.3908 H       1  UNL1        0.0000
    935 H         -15.8091   32.8406    6.0034 H       1  UNL1        0.0000
    936 H         -13.3588   42.1334    4.3215 H       1  UNL1        0.0000
    937 H         -12.2550   36.5464    6.5313 H       1  UNL1        0.0000
    938 H         -10.8416   37.3105    5.8345 H       1  UNL1        0.0000
    939 H         -10.5953   43.1625    2.6221 H       1  UNL1        0.0000
    940 H          -4.3757   29.5585    3.4192 H       1  UNL1        0.0000
    941 H          -4.7979   30.0601   10.0458 H       1  UNL1        0.0000
    942 H          -6.1491   29.2523   10.8134 H       1  UNL1        0.0000
    943 H          -2.2736   39.3942    6.3933 H       1  UNL1        0.0000
    944 H          -3.6453   38.6626    5.5845 H       1  UNL1        0.0000
    945 H          -4.1462   35.7527    8.6385 H       1  UNL1        0.0000
    946 H          -4.6418   36.0193    6.9752 H       1  UNL1        0.0000
    947 H          -5.2315   25.4341    9.5924 H       1  UNL1        0.0000
    948 H          -6.5673   26.4265   10.1534 H       1  UNL1        0.0000
    949 C          -3.4936   35.2412    4.7553 C.3     1  UNL1        0.0000
    950 C         -16.0765   33.0469    8.7017 C.2     1  UNL1        0.0000
    951 C          -8.3322   27.7817    8.7556 C.3     1  UNL1        0.0000
    952 C         -11.2176   40.4879    4.6695 C.2     1  UNL1        0.0000
    953 C          -2.6611   34.6688    5.8236 C.ar    1  UNL1        0.0000
    954 C         -16.9676   33.6227    7.6573 C.2     1  UNL1        0.0000
    955 C          -7.4817   27.1257    7.7489 C.ar    1  UNL1        0.0000
    956 C         -12.0634   41.1116    5.7259 C.2     1  UNL1        0.0000
    957 C          -2.9616   34.8582    7.2123 C.ar    1  UNL1        0.0000
    958 C         -16.6818   33.4205    6.2898 C.3     1  UNL1        0.0000
    959 C          -6.3953   26.2618    8.1097 C.ar    1  UNL1        0.0000
    960 C         -13.1423   41.9507    5.3703 C.3     1  UNL1        0.0000
    961 C         -11.7667   40.8601    7.0612 C.3     1  UNL1        0.0000
    962 C          -7.7570   27.3611    6.3819 C.ar    1  UNL1        0.0000
    963 C          -1.5229   33.9154    5.4539 C.ar    1  UNL1        0.0000
    964 C         -18.0798   34.3573    8.0537 C.3     1  UNL1        0.0000
    965 C          -9.1734   35.2860    6.1462 C.ar    1  UNL1        0.0000
    966 C         -10.4745   33.1011    7.3417 C.ar    1  UNL1        0.0000
    967 C          -5.3824   40.6037    6.0518 C.2     1  UNL1        0.0000
    968 C         -14.0504   27.5834    7.3966 C.2     1  UNL1        0.0000
    969 C          -4.2271   31.6949    0.0851 C.2     1  UNL1        0.0000
    970 C         -10.4921   44.0575    0.1281 C.2     1  UNL1        0.0000
    971 C          -0.5403   37.1244   -0.0410 C.2     1  UNL1        0.0000
    972 C         -14.1328   38.6273   -0.0520 C.2     1  UNL1        0.0000
    973 C          -8.4509   36.3653    5.4519 C.3     1  UNL1        0.0000
    974 C         -11.1714   31.9534    7.9944 C.3     1  UNL1        0.0000
    975 C          -6.0554   39.5648    5.2637 C.2     1  UNL1        0.0000
    976 C         -13.4048   28.6746    8.1779 C.2     1  UNL1        0.0000
    977 C          -4.1735   33.1839    0.0883 C.2     1  UNL1        0.0000
    978 C         -10.5105   42.5897    0.0821 C.2     1  UNL1        0.0000
    979 C          -1.8293   36.4153   -0.0162 C.2     1  UNL1        0.0000
    980 C         -12.8345   39.3628   -0.0154 C.2     1  UNL1        0.0000
    981 C         -10.5431   35.4138    6.5466 C.ar    1  UNL1        0.0000
    982 C          -9.1181   32.9837    6.9688 C.ar    1  UNL1        0.0000
    983 C          -6.1024   41.7769    6.3752 C.3     1  UNL1        0.0000
    984 C         -13.3145   26.4432    7.0935 C.3     1  UNL1        0.0000
    985 C          -4.3174   31.0282    1.3017 C.2     1  UNL1        0.0000
    986 C         -15.2565   37.2859   12.2683 C.3     1  UNL1        0.0000
    987 C           0.0379   37.5021    1.1927 C.2     1  UNL1        0.0000
    988 C         -19.5289   30.7886   12.0795 C.3     1  UNL1        0.0000
    989 C          -4.0201   40.4701    6.4754 C.3     1  UNL1        0.0000
    990 C         -15.3958   27.7099    6.9892 C.3     1  UNL1        0.0000
    991 C          -8.4947   34.0671    6.3767 C.ar    1  UNL1        0.0000
    992 C         -11.1679   34.2891    7.1356 C.ar    1  UNL1        0.0000
    993 C          -4.7349   29.9942   12.0973 C.ar    1  UNL1        0.0000
    994 C         -14.7782   38.2731    1.1525 C.3     1  UNL1        0.0000
    995 C          -9.0609   23.5015   12.2282 C.ar    1  UNL1        0.0000
    996 C         -10.5319   44.7828    1.3634 C.2     1  UNL1        0.0000
    997 N         -11.2501   36.5792    6.4149 N.pl3   1  UNL1        0.0000
    998 N         -10.6654   44.1771    2.5803 N.2     1  UNL1        0.0000
    999 N          -5.2030   29.6255   10.8652 N.pl3   1  UNL1        0.0000
   1000 N          -3.2729   39.3489    6.2389 N.3     1  UNL1        0.0000
   1001 N          -4.0635   35.5307    7.6549 N.pl3   1  UNL1        0.0000
   1002 N          -6.0832   25.9451    9.3997 N.pl3   1  UNL1        0.0000
   1003 O          -4.5132   35.9635    5.0802 O.3     1  UNL1        0.0000
   1004 O         -15.1307   32.2696    8.3301 O.2     1  UNL1        0.0000
   1005 O          -8.0589   27.5984   10.0066 O.3     1  UNL1        0.0000
   1006 O         -11.5485   40.6560    3.4476 O.2     1  UNL1        0.0000
   1007 O         -10.1939   39.8076    5.0488 O.2     1  UNL1        0.0000
   1008 O          -9.3071   28.5230    8.3711 O.3     1  UNL1        0.0000
   1009 O          -3.1773   35.0112    3.5290 O.3     1  UNL1        0.0000
   1010 O         -16.3058   33.3635    9.9246 O.2     1  UNL1        0.0000
   1011 O          -5.8486   35.3340    2.7311 O.3     1  UNL1        0.0000
   1012 O         -13.6562   32.9237   10.6166 O.3     1  UNL1        0.0000
   1013 O          -4.4353   37.3503    2.6642 O.3     1  UNL1        0.0000
   1014 O         -15.1447   30.9754   10.8008 O.3     1  UNL1        0.0000
   1015 O         -10.7048   27.7922   10.6235 O.3     1  UNL1        0.0000
   1016 O          -8.9025   40.5236    2.7602 O.3     1  UNL1        0.0000
   1017 O          -9.4683   29.9034   10.8767 O.3     1  UNL1        0.0000
   1018 O         -10.0593   38.3559    2.6024 O.3     1  UNL1        0.0000
   1019 O          -7.2073   36.1772    5.1619 O.3     1  UNL1        0.0000
   1020 O         -12.4309   32.0333    8.1817 O.3     1  UNL1        0.0000
   1021 O          -5.4264   38.5053    4.9373 O.2     1  UNL1        0.0000
   1022 O         -14.1328   29.6472    8.5655 O.2     1  UNL1        0.0000
   1023 O          -9.0471   26.3069   12.3178 O.3     1  UNL1        0.0000
   1024 O         -10.6049   41.9225    1.1702 O.2     1  UNL1        0.0000
   1025 O          -7.2517   28.6301   12.2355 O.3     1  UNL1        0.0000
   1026 O         -12.2977   39.5280    1.1389 O.2     1  UNL1        0.0000
   1027 O          -7.2847   39.7609    4.9101 O.2     1  UNL1        0.0000
   1028 O         -12.1575   28.5801    8.4291 O.2     1  UNL1        0.0000
   1029 O          -9.0734   37.4436    5.1494 O.3     1  UNL1        0.0000
   1030 O         -10.4512   30.9513    8.3367 O.3     1  UNL1        0.0000
   1031 O          -2.3492   36.1295    1.1283 O.2     1  UNL1        0.0000
   1032 O         -17.1862   32.2911   12.2512 O.2     1  UNL1        0.0000
   1033 O          -4.1196   33.7845    1.2062 O.2     1  UNL1        0.0000
   1034 O         -15.2725   34.5270   12.2986 O.2     1  UNL1        0.0000
   1035 O          -7.3741   37.8303    2.8917 O.3     1  UNL1        0.0000
   1036 O         -12.1956   30.4650   10.4976 O.3     1  UNL1        0.0000
   1037 O          -4.9577   36.2599    0.0771 O.3     1  UNL1        0.0000
   1038 O          -9.7341   39.4777   -0.0077 O.3     1  UNL1        0.0000
   1039 H         -11.9400   33.6140   12.5587 H      14  UNL14       0.0000
   1040 H         -10.4309   33.4741   10.2420 H      14  UNL14       0.0000
   1041 C         -10.9129   33.2996   12.4118 C.2    14  UNL14       0.0000
   1042 H          -7.9343   34.3352    9.5397 H      14  UNL14       0.0000
   1043 C         -10.1681   33.2272   11.2627 C.2    14  UNL14       0.0000
   1044 H         -10.5905   33.8204   15.2685 H      14  UNL14       0.0000
   1045 N         -10.0973   32.8718   13.4502 N.pl3  14  UNL14       0.0000
   1046 C          -7.1980   33.7501   10.1055 C.3    14  UNL14       0.0000
   1047 H          -6.7832   34.3768   10.9050 H      14  UNL14       0.0000
   1048 C         -10.4689   32.8072   14.8707 C.3    14  UNL14       0.0000
   1049 N          -8.9150   32.7588   11.6119 N.pl3  14  UNL14       0.0000
   1050 H         -11.4124   32.2600   14.9775 H      14  UNL14       0.0000
   1051 H          -6.3844   33.4907    9.4112 H      14  UNL14       0.0000
   1052 C          -8.8891   32.5515   12.9417 C.3    14  UNL14       0.0000
   1053 C          -7.8104   32.4729   10.6669 C.3    14  UNL14       0.0000
   1054 H          -8.2409   31.8328    9.8872 H      14  UNL14       0.0000
   1055 H          -9.6900   32.2656   15.4194 H      14  UNL14       0.0000
   1056 H          -8.0434   32.1836   13.5111 H      14  UNL14       0.0000
   1057 H          -7.0761   31.8695   11.2149 H      14  UNL14       0.0000
   1058 TI        -20.0992   25.2002   24.8817 Ti      1  UNL1        0.0000
   1059 TI         -9.0212   28.2629   15.2710 Ti      1  UNL1        0.0000
   1060 TI        -15.5543   21.8854   22.9858 Ti      1  UNL1        0.0000
   1061 TI        -13.6134   31.5767   17.1626 Ti      1  UNL1        0.0000
   1062 TI        -15.2860   32.4651   15.1955 Ti      1  UNL1        0.0000
   1063 TI        -14.0830   20.7207   24.9550 Ti      1  UNL1        0.0000
   1064 TI        -18.6520   23.8999   22.9826 Ti      1  UNL1        0.0000
   1065 TI        -10.7370   29.3067   17.1197 Ti      1  UNL1        0.0000
   1066 H         -13.4514   24.5682   20.5057 H       1  UNL1        0.0000
   1067 H         -17.1370   18.8983   20.7914 H       1  UNL1        0.0000
   1068 H         -11.9875   34.3625   19.3926 H       1  UNL1        0.0000
   1069 H         -20.0867   29.2205   24.7135 H       1  UNL1        0.0000
   1070 H          -9.1951   24.1329   15.5806 H       1  UNL1        0.0000
   1071 H         -23.8521   23.5877   24.5327 H       1  UNL1        0.0000
   1072 H          -5.3487   29.7407   15.4597 H       1  UNL1        0.0000
   1073 H         -13.8517   16.5645   24.6505 H       1  UNL1        0.0000
   1074 H         -19.1896   31.0812   15.4617 H       1  UNL1        0.0000
   1075 H         -12.3121   26.5257   19.4201 H       1  UNL1        0.0000
   1076 H         -17.0653   26.8699   20.8060 H       1  UNL1        0.0000
   1077 H         -20.8033   21.1311   20.6023 H       1  UNL1        0.0000
   1078 H         -14.4203   31.0415   13.2747 H       1  UNL1        0.0000
   1079 H         -10.0412   29.7271   13.4455 H       1  UNL1        0.0000
   1080 H         -16.6797   23.5604   24.5516 H       1  UNL1        0.0000
   1081 H         -12.6815   29.8266   15.5667 H       1  UNL1        0.0000
   1082 H         -13.4455   20.5404   19.5073 H       1  UNL1        0.0000
   1083 H         -15.7846   32.7286   20.6632 H       1  UNL1        0.0000
   1084 H         -23.1278   27.0100   22.4777 H       1  UNL1        0.0000
   1085 H          -6.1849   26.3124   17.7518 H       1  UNL1        0.0000
   1086 H         -20.6646   25.3609   19.3644 H       1  UNL1        0.0000
   1087 H         -18.2143   34.6537   17.6825 H       1  UNL1        0.0000
   1088 H         -17.1105   29.0667   19.8923 H       1  UNL1        0.0000
   1089 H         -15.6972   29.8308   19.1955 H       1  UNL1        0.0000
   1090 H         -15.4508   35.6828   15.9831 H       1  UNL1        0.0000
   1091 H          -9.2312   22.0787   16.7801 H       1  UNL1        0.0000
   1092 H          -9.6534   22.5803   23.4068 H       1  UNL1        0.0000
   1093 H         -11.0046   21.7725   24.1744 H       1  UNL1        0.0000
   1094 H          -7.1291   31.9144   19.7543 H       1  UNL1        0.0000
   1095 H          -8.5008   31.1828   18.9455 H       1  UNL1        0.0000
   1096 H          -9.0017   28.2730   21.9995 H       1  UNL1        0.0000
   1097 H          -9.4973   28.5395   20.3362 H       1  UNL1        0.0000
   1098 H         -10.0870   17.9544   22.9533 H       1  UNL1        0.0000
   1099 H         -11.4229   18.9468   23.5144 H       1  UNL1        0.0000
   1100 C          -8.3492   27.7615   18.1163 C.3     1  UNL1        0.0000
   1101 C         -20.9320   25.5672   22.0627 C.2     1  UNL1        0.0000
   1102 C         -13.1877   20.3020   22.1166 C.3     1  UNL1        0.0000
   1103 C         -16.0731   33.0081   18.0305 C.2     1  UNL1        0.0000
   1104 C          -7.5166   27.1891   19.1846 C.ar    1  UNL1        0.0000
   1105 C         -21.8231   26.1430   21.0183 C.2     1  UNL1        0.0000
   1106 C         -12.3372   19.6459   21.1099 C.ar    1  UNL1        0.0000
   1107 C         -16.9190   33.6319   19.0869 C.2     1  UNL1        0.0000
   1108 C          -7.8171   27.3785   20.5733 C.ar    1  UNL1        0.0000
   1109 C         -21.5374   25.9408   19.6508 C.3     1  UNL1        0.0000
   1110 C         -11.2508   18.7821   21.4707 C.ar    1  UNL1        0.0000
   1111 C         -17.9978   34.4709   18.7313 C.3     1  UNL1        0.0000
   1112 C         -16.6222   33.3803   20.4222 C.3     1  UNL1        0.0000
   1113 C         -12.6126   19.8814   19.7429 C.ar    1  UNL1        0.0000
   1114 C          -6.3784   26.4356   18.8149 C.ar    1  UNL1        0.0000
   1115 C         -22.9353   26.8776   21.4147 C.3     1  UNL1        0.0000
   1116 C         -14.0289   27.8063   19.5072 C.ar    1  UNL1        0.0000
   1117 C         -15.3300   25.6214   20.7027 C.ar    1  UNL1        0.0000
   1118 C         -10.2379   33.1239   19.4128 C.2     1  UNL1        0.0000
   1119 C         -18.9060   20.1036   20.7576 C.2     1  UNL1        0.0000
   1120 C          -9.0826   24.2152   13.4461 C.ar    1  UNL1        0.0000
   1121 C         -15.3476   36.5778   13.4891 C.2     1  UNL1        0.0000
   1122 C          -5.3958   29.6447   13.3200 C.ar    1  UNL1        0.0000
   1123 C         -18.9883   31.1475   13.3090 C.2     1  UNL1        0.0000
   1124 C         -13.3064   28.8856   18.8129 C.3     1  UNL1        0.0000
   1125 C         -16.0269   24.4737   21.3554 C.3     1  UNL1        0.0000
   1126 C         -10.9110   32.0851   18.6247 C.2     1  UNL1        0.0000
   1127 C         -18.2603   21.1948   21.5389 C.2     1  UNL1        0.0000
   1128 C          -9.0290   25.7041   13.4493 C.3     1  UNL1        0.0000
   1129 C         -15.3660   35.1100   13.4431 C.2     1  UNL1        0.0000
   1130 C          -6.6848   28.9356   13.3448 C.3     1  UNL1        0.0000
   1131 C         -17.6901   31.8830   13.3456 C.2     1  UNL1        0.0000
   1132 C         -15.3987   27.9341   19.9076 C.ar    1  UNL1        0.0000
   1133 C         -13.9736   25.5040   20.3298 C.ar    1  UNL1        0.0000
   1134 C         -10.9580   34.2972   19.7362 C.3     1  UNL1        0.0000
   1135 C         -18.1700   18.9635   20.4545 C.3     1  UNL1        0.0000
   1136 C          -9.1729   23.5484   14.6627 C.ar    1  UNL1        0.0000
   1137 C         -20.1120   29.8061   25.6293 C.3     1  UNL1        0.0000
   1138 C          -4.8176   30.0223   14.5537 C.ar    1  UNL1        0.0000
   1139 C         -24.3844   23.3089   25.4405 C.3     1  UNL1        0.0000
   1140 C          -8.8757   32.9904   19.8364 C.3     1  UNL1        0.0000
   1141 C         -20.2514   20.2302   20.3502 C.3     1  UNL1        0.0000
   1142 C         -13.3503   26.5873   19.7377 C.ar    1  UNL1        0.0000
   1143 C         -16.0234   26.8093   20.4966 C.ar    1  UNL1        0.0000
   1144 C          -9.5904   22.5145   25.4583 C.ar    1  UNL1        0.0000
   1145 C         -19.6338   30.7933   14.5135 C.3     1  UNL1        0.0000
   1146 C         -13.9164   16.0218   25.5892 C.ar    1  UNL1        0.0000
   1147 C         -15.3874   37.3031   14.7244 C.2     1  UNL1        0.0000
   1148 N         -16.1056   29.0994   19.7759 N.pl3   1  UNL1        0.0000
   1149 N         -15.5209   36.6974   15.9413 N.2     1  UNL1        0.0000
   1150 N         -10.0585   22.1458   24.2262 N.pl3   1  UNL1        0.0000
   1151 N          -8.1285   31.8691   19.5999 N.3     1  UNL1        0.0000
   1152 N          -8.9191   28.0510   21.0159 N.pl3   1  UNL1        0.0000
   1153 N         -10.9388   18.4653   22.7607 N.pl3   1  UNL1        0.0000
   1154 O          -9.3687   28.4838   18.4412 O.3     1  UNL1        0.0000
   1155 O         -19.9862   24.7899   21.6911 O.2     1  UNL1        0.0000
   1156 O         -12.9144   20.1186   23.3676 O.3     1  UNL1        0.0000
   1157 O         -16.4041   33.1763   16.8086 O.2     1  UNL1        0.0000
   1158 O         -15.0494   32.3278   18.4098 O.2     1  UNL1        0.0000
   1159 O         -14.1626   21.0433   21.7321 O.3     1  UNL1        0.0000
   1160 O          -8.0328   27.5314   16.8900 O.3     1  UNL1        0.0000
   1161 O         -21.1614   25.8838   23.2856 O.2     1  UNL1        0.0000
   1162 O         -10.7041   27.8542   16.0921 O.3     1  UNL1        0.0000
   1163 O         -18.5117   25.4440   23.9776 O.3     1  UNL1        0.0000
   1164 O          -9.2909   29.8705   16.0252 O.3     1  UNL1        0.0000
   1165 O         -20.0002   23.4956   24.1618 O.3     1  UNL1        0.0000
   1166 O         -15.5604   20.3124   23.9845 O.3     1  UNL1        0.0000
   1167 O         -13.7580   33.0439   16.1212 O.3     1  UNL1        0.0000
   1168 O         -14.3238   22.4237   24.2377 O.3     1  UNL1        0.0000
   1169 O         -14.9148   30.8762   15.9634 O.3     1  UNL1        0.0000
   1170 O         -12.0628   28.6975   18.5229 O.3     1  UNL1        0.0000
   1171 O         -17.2865   24.5536   21.5427 O.3     1  UNL1        0.0000
   1172 O         -10.2820   31.0255   18.2983 O.2     1  UNL1        0.0000
   1173 O         -18.9883   22.1675   21.9265 O.2     1  UNL1        0.0000
   1174 O         -13.9027   18.8272   25.6788 O.3     1  UNL1        0.0000
   1175 O         -15.4604   34.4428   14.5312 O.2     1  UNL1        0.0000
   1176 O         -12.1073   21.1504   25.5965 O.3     1  UNL1        0.0000
   1177 O         -17.1533   32.0483   14.4999 O.2     1  UNL1        0.0000
   1178 O         -12.1403   32.2811   18.2711 O.2     1  UNL1        0.0000
   1179 O         -17.0130   21.1004   21.7901 O.2     1  UNL1        0.0000
   1180 O         -13.9289   29.9638   18.5103 O.3     1  UNL1        0.0000
   1181 O         -15.3067   23.4716   21.6977 O.3     1  UNL1        0.0000
   1182 O          -7.2047   28.6498   14.4892 O.3     1  UNL1        0.0000
   1183 O         -22.0417   24.8114   25.6122 O.2     1  UNL1        0.0000
   1184 O          -8.9751   26.3048   14.5672 O.3     1  UNL1        0.0000
   1185 O         -20.1280   27.0472   25.6596 O.2     1  UNL1        0.0000
   1186 O         -12.2296   30.3505   16.2527 O.3     1  UNL1        0.0000
   1187 O         -17.0511   22.9853   23.8586 O.3     1  UNL1        0.0000
   1188 O          -9.8132   28.7802   13.4381 O.3     1  UNL1        0.0000
   1189 O         -14.5896   31.9980   13.3533 O.3     1  UNL1        0.0000
   1190 H         -16.7955   26.1343   25.9197 H      15  UNL15       0.0000
   1191 H         -15.2864   25.9944   23.6030 H      15  UNL15       0.0000
   1192 C         -15.7685   25.8198   25.7728 C.2    15  UNL15       0.0000
   1193 H         -12.7898   26.8555   22.9007 H      15  UNL15       0.0000
   1194 C         -15.0236   25.7475   24.6237 C.2    15  UNL15       0.0000
   1195 H         -15.4460   26.3407   28.6295 H      15  UNL15       0.0000
   1196 N         -14.9528   25.3920   26.8112 N.pl3  15  UNL15       0.0000
   1197 C         -12.0535   26.2704   23.4665 C.3    15  UNL15       0.0000
   1198 H         -11.6387   26.8971   24.2660 H      15  UNL15       0.0000
   1199 C         -15.3244   25.3274   28.2317 C.3    15  UNL15       0.0000
   1200 N         -13.7705   25.2791   24.9729 N.pl3  15  UNL15       0.0000
   1201 H         -16.2680   24.7803   28.3385 H      15  UNL15       0.0000
   1202 H         -11.2399   26.0109   22.7722 H      15  UNL15       0.0000
   1203 C         -13.7446   25.0717   26.3027 C.3    15  UNL15       0.0000
   1204 C         -12.6659   24.9931   24.0279 C.3    15  UNL15       0.0000
   1205 H         -13.0964   24.3531   23.2482 H      15  UNL15       0.0000
   1206 H         -14.5455   24.7859   28.7804 H      15  UNL15       0.0000
   1207 H         -12.8989   24.7039   26.8721 H      15  UNL15       0.0000
   1208 H         -11.9316   24.3898   24.5759 H      15  UNL15       0.0000
   1209 TI        -24.9547   17.7204   38.2427 Ti      1  UNL1        0.0000
   1210 TI        -13.8767   20.7832   28.6320 Ti      1  UNL1        0.0000
   1211 TI        -20.4098   14.4057   36.3468 Ti      1  UNL1        0.0000
   1212 TI        -18.4689   24.0969   30.5236 Ti      1  UNL1        0.0000
   1213 TI        -20.1415   24.9854   28.5565 Ti      1  UNL1        0.0000
   1214 TI        -18.9386   13.2410   38.3160 Ti      1  UNL1        0.0000
   1215 TI        -23.5075   16.4201   36.3436 Ti      1  UNL1        0.0000
   1216 TI        -15.5925   21.8269   30.4807 Ti      1  UNL1        0.0000
   1217 H         -18.3069   17.0884   33.8667 H       1  UNL1        0.0000
   1218 H         -21.9925   11.4186   34.1524 H       1  UNL1        0.0000
   1219 H         -16.8430   26.8828   32.7536 H       1  UNL1        0.0000
   1220 H         -24.9422   21.7407   38.0745 H       8  UNL8        0.0000
   1221 H         -14.0506   16.6531   28.9416 H       1  UNL1        0.0000
   1222 H         -28.7076   16.1080   37.8937 H       9  UNL9        0.0000
   1223 H         -10.2042   22.2610   28.8207 H       1  UNL1        0.0000
   1224 H         -18.7072    9.0847   38.0115 H       5  UNL5        0.0000
   1225 H         -24.0451   23.6015   28.8227 H       1  UNL1        0.0000
   1226 H         -17.1676   19.0460   32.7811 H       1  UNL1        0.0000
   1227 H         -21.9208   19.3901   34.1670 H       1  UNL1        0.0000
   1228 H         -25.6588   13.6513   33.9633 H       1  UNL1        0.0000
   1229 H         -19.2759   23.5617   26.6357 H       1  UNL1        0.0000
   1230 H         -14.8968   22.2474   26.8065 H       1  UNL1        0.0000
   1231 H         -21.5352   16.0806   37.9126 H       1  UNL1        0.0000
   1232 H         -17.5371   22.3468   28.9277 H       1  UNL1        0.0000
   1233 H         -18.3010   13.0606   32.8683 H       1  UNL1        0.0000
   1234 H         -20.6401   25.2488   34.0242 H       1  UNL1        0.0000
   1235 H         -27.9833   19.5303   35.8387 H       1  UNL1        0.0000
   1236 H         -11.0404   18.8326   31.1128 H       1  UNL1        0.0000
   1237 H         -25.5202   17.8811   32.7254 H       1  UNL1        0.0000
   1238 H         -23.0699   27.1739   31.0435 H       1  UNL1        0.0000
   1239 H         -21.9661   21.5869   33.2533 H       1  UNL1        0.0000
   1240 H         -20.5527   22.3511   32.5565 H       1  UNL1        0.0000
   1241 H         -20.3063   28.2031   29.3441 H       1  UNL1        0.0000
   1242 H         -14.0867   14.5990   30.1411 H       1  UNL1        0.0000
   1243 H         -14.5089   15.1006   36.7678 H      10  UNL10       0.0000
   1244 H         -15.8602   14.2928   37.5354 H      10  UNL10       0.0000
   1245 H         -11.9847   24.4347   33.1153 H       1  UNL1        0.0000
   1246 H         -13.3563   23.7031   32.3065 H       1  UNL1        0.0000
   1247 H         -13.8572   20.7932   35.3605 H       1  UNL1        0.0000
   1248 H         -14.3528   21.0598   33.6972 H       1  UNL1        0.0000
   1249 H         -14.9426   10.4746   36.3143 H       1  UNL1        0.0000
   1250 H         -16.2784   11.4670   36.8754 H       1  UNL1        0.0000
   1251 C         -13.2047   20.2818   31.4773 C.3     1  UNL1        0.0000
   1252 C         -25.7876   18.0874   35.4237 C.2     1  UNL1        0.0000
   1253 C         -18.0432   12.8222   35.4776 C.3     1  UNL1        0.0000
   1254 C         -20.9286   25.5284   31.3915 C.2     1  UNL1        0.0000
   1255 C         -12.3721   19.7093   32.5456 C.ar    1  UNL1        0.0000
   1256 C         -26.6786   18.6632   34.3793 C.2     1  UNL1        0.0000
   1257 C         -17.1928   12.1662   34.4709 C.ar    1  UNL1        0.0000
   1258 C         -21.7745   26.1521   32.4479 C.2     1  UNL1        0.0000
   1259 C         -12.6726   19.8987   33.9343 C.ar    1  UNL1        0.0000
   1260 C         -26.3929   18.4611   33.0118 C.3     1  UNL1        0.0000
   1261 C         -16.1064   11.3023   34.8317 C.ar    1  UNL1        0.0000
   1262 C         -22.8534   26.9912   32.0923 C.3     1  UNL1        0.0000
   1263 C         -21.4777   25.9006   33.7832 C.3     1  UNL1        0.0000
   1264 C         -17.4681   12.4017   33.1039 C.ar    1  UNL1        0.0000
   1265 C         -11.2339   18.9559   32.1759 C.ar    1  UNL1        0.0000
   1266 C         -27.7909   19.3979   34.7757 C.3     1  UNL1        0.0000
   1267 C         -18.8844   20.3266   32.8682 C.ar    1  UNL1        0.0000
   1268 C         -20.1855   18.1416   34.0637 C.ar    1  UNL1        0.0000
   1269 C         -15.0935   25.6442   32.7738 C.2     1  UNL1        0.0000
   1270 C         -23.7615   12.6239   34.1186 C.2     1  UNL1        0.0000
   1271 C         -13.9381   16.7354   26.8071 C.ar    1  UNL1        0.0000
   1272 C         -20.2031   29.0981   26.8501 C.2     1  UNL1        0.0000
   1273 C         -10.2513   22.1649   26.6810 C.ar    1  UNL1        0.0000
   1274 C         -23.8438   23.6678   26.6700 C.2     1  UNL1        0.0000
   1275 C         -18.1619   21.4058   32.1739 C.3     1  UNL1        0.0000
   1276 C         -20.8825   16.9939   34.7164 C.3     1  UNL1        0.0000
   1277 C         -15.7665   24.6053   31.9857 C.2     1  UNL1        0.0000
   1278 C         -23.1159   13.7151   34.8999 C.2     1  UNL1        0.0000
   1279 C         -13.8845   18.2244   26.8103 C.3     1  UNL1        0.0000
   1280 C         -20.2215   27.6302   26.8041 C.2     1  UNL1        0.0000
   1281 C         -11.5403   21.4558   26.7058 C.3     1  UNL1        0.0000
   1282 C         -22.5456   24.4033   26.7065 C.2     1  UNL1        0.0000
   1283 C         -20.2542   20.4543   33.2686 C.ar    1  UNL1        0.0000
   1284 C         -18.8292   18.0243   33.6908 C.ar    1  UNL1        0.0000
   1285 C         -15.8135   26.8174   33.0972 C.3     1  UNL1        0.0000
   1286 C         -23.0256   11.4837   33.8155 C.3     1  UNL1        0.0000
   1287 C         -14.0284   16.0687   28.0237 C.ar    1  UNL1        0.0000
   1288 C         -24.9675   22.3264   38.9903 C.3    16  UNL16       0.0000
   1289 C          -9.6731   22.5426   27.9147 C.ar    1  UNL1        0.0000
   1290 C         -29.2399   15.8291   38.8015 C.3    17  UNL17       0.0000
   1291 C         -13.7312   25.5106   33.1974 C.3     1  UNL1        0.0000
   1292 C         -25.1069   12.7505   33.7112 C.3     1  UNL1        0.0000
   1293 C         -18.2058   19.1076   33.0987 C.ar    1  UNL1        0.0000
   1294 C         -20.8789   19.3296   33.8576 C.ar    1  UNL1        0.0000
   1295 C         -14.4459   15.0348   38.8193 C.2    10  UNL10       0.0000
   1296 C         -24.4893   23.3136   27.8744 C.3     1  UNL1        0.0000
   1297 C         -18.7719    8.5421   38.9502 C.2     5  UNL5        0.0000
   1298 C         -20.2429   29.8233   28.0854 C.2     1  UNL1        0.0000
   1299 N         -20.9611   21.6197   33.1369 N.pl3   1  UNL1        0.0000
   1300 N         -20.3765   29.2177   29.3023 N.2     1  UNL1        0.0000
   1301 N         -14.9141   14.6660   37.5872 N.pl3  10  UNL10       0.0000
   1302 N         -12.9840   24.3894   32.9609 N.3     1  UNL1        0.0000
   1303 N         -13.7746   20.5712   34.3769 N.pl3   1  UNL1        0.0000
   1304 N         -15.7943   10.9856   36.1217 N.pl3   1  UNL1        0.0000
   1305 O         -14.2243   21.0041   31.8022 O.3     1  UNL1        0.0000
   1306 O         -24.8417   17.3101   35.0521 O.2     1  UNL1        0.0000
   1307 O         -17.7699   12.6389   36.7286 O.3     1  UNL1        0.0000
   1308 O         -21.2596   25.6965   30.1696 O.2     1  UNL1        0.0000
   1309 O         -19.9049   24.8481   31.7708 O.2     1  UNL1        0.0000
   1310 O         -19.0181   13.5635   35.0931 O.3     1  UNL1        0.0000
   1311 O         -12.8883   20.0517   30.2510 O.3     1  UNL1        0.0000
   1312 O         -26.0169   18.4040   36.6466 O.2     1  UNL1        0.0000
   1313 O         -15.5597   20.3745   29.4531 O.3     1  UNL1        0.0000
   1314 O         -23.3672   17.9642   37.3386 O.3     1  UNL1        0.0000
   1315 O         -14.1464   22.3908   29.3862 O.3     1  UNL1        0.0000
   1316 O         -24.8557   16.0159   37.5228 O.3     1  UNL1        0.0000
   1317 O         -20.4159   12.8327   37.3455 O.3     1  UNL1        0.0000
   1318 O         -18.6135   25.5642   29.4822 O.3     1  UNL1        0.0000
   1319 O         -19.1793   14.9439   37.5987 O.3     1  UNL1        0.0000
   1320 O         -19.7703   23.3964   29.3244 O.3     1  UNL1        0.0000
   1321 O         -16.9183   21.2177   31.8839 O.3     1  UNL1        0.0000
   1322 O         -22.1420   17.0738   34.9037 O.3     1  UNL1        0.0000
   1323 O         -15.1375   23.5458   31.6592 O.2     1  UNL1        0.0000
   1324 O         -23.8439   14.6877   35.2875 O.2     1  UNL1        0.0000
   1325 O         -18.7582   11.3474   39.0398 O.3     1  UNL1        0.0000
   1326 O         -20.3160   26.9630   27.8922 O.2     1  UNL1        0.0000
   1327 O         -16.9628   13.6706   38.9575 O.3     1  UNL1        0.0000
   1328 O         -22.0088   24.5685   27.8609 O.2     1  UNL1        0.0000
   1329 O         -16.9958   24.8014   31.6321 O.2     1  UNL1        0.0000
   1330 O         -21.8685   13.6207   35.1511 O.2     1  UNL1        0.0000
   1331 O         -18.7845   22.4841   31.8713 O.3     1  UNL1        0.0000
   1332 O         -20.1622   15.9918   35.0587 O.3     1  UNL1        0.0000
   1333 O         -12.0603   21.1701   27.8502 O.3     1  UNL1        0.0000
   1334 O         -26.8972   17.3316   38.9732 O.3     1  UNL1        0.0000
   1335 O         -13.8307   18.8251   27.9282 O.3     1  UNL1        0.0000
   1336 O         -24.9835   19.5675   39.0206 O.3     1  UNL1        0.0000
   1337 O         -17.0852   22.8708   29.6137 O.3     1  UNL1        0.0000
   1338 O         -21.9067   15.5055   37.2196 O.3     1  UNL1        0.0000
   1339 O         -14.6687   21.3005   26.7991 O.3     1  UNL1        0.0000
   1340 O         -19.4451   24.5183   26.7143 O.3     1  UNL1        0.0000
   1341 H         -21.6511   18.6545   39.2807 H      18  UNL18       0.0000
   1342 H         -20.1419   18.5146   36.9640 H      18  UNL18       0.0000
   1343 C         -20.6240   18.3401   39.1338 C.2    18  UNL18       0.0000
   1344 H         -17.6454   19.3758   36.2617 H      18  UNL18       0.0000
   1345 C         -19.8792   18.2678   37.9847 C.2    18  UNL18       0.0000
   1346 H         -20.3015   18.8610   41.9905 H      18  UNL18       0.0000
   1347 N         -19.8083   17.9123   40.1722 N.pl3  18  UNL18       0.0000
   1348 C         -16.9090   18.7907   36.8275 C.3    18  UNL18       0.0000
   1349 H         -16.4942   19.4173   37.6270 H      18  UNL18       0.0000
   1350 C         -20.1800   17.8477   41.5927 C.3    18  UNL18       0.0000
   1351 N         -18.6260   17.7993   38.3339 N.pl3  18  UNL18       0.0000
   1352 H         -21.1235   17.3005   41.6995 H      18  UNL18       0.0000
   1353 H         -16.0954   18.5312   36.1332 H      18  UNL18       0.0000
   1354 C         -18.6002   17.5920   39.6637 C.3    18  UNL18       0.0000
   1355 C         -17.5214   17.5134   37.3889 C.3    18  UNL18       0.0000
   1356 H         -17.9519   16.8733   36.6092 H      18  UNL18       0.0000
   1357 H         -19.4011   17.3061   42.1414 H      18  UNL18       0.0000
   1358 H         -17.7545   17.2241   40.2331 H      18  UNL18       0.0000
   1359 H         -16.7871   16.9100   37.9369 H      18  UNL18       0.0000
   1360 TI         13.0339    2.2829   11.6292 Ti      1  UNL1        0.0000
   1361 TI         24.1118    5.3457    2.0185 Ti      1  UNL1        0.0000
   1362 TI         17.5787   -1.0318    9.7333 Ti      1  UNL1        0.0000
   1363 TI         19.5196    8.6594    3.9101 Ti      1  UNL1        0.0000
   1364 TI         17.8470    9.5479    1.9430 Ti      1  UNL1        0.0000
   1365 TI         19.0500   -2.1965   11.7025 Ti      1  UNL1        0.0000
   1366 TI         14.4811    0.9826    9.7301 Ti      1  UNL1        0.0000
   1367 TI         22.3960    6.3894    3.8672 Ti      1  UNL1        0.0000
   1368 H          19.6816    1.6509    7.2532 H       1  UNL1        0.0000
   1369 H          15.9961   -4.0189    7.5389 H       1  UNL1        0.0000
   1370 H          21.1455   11.4453    6.1401 H       1  UNL1        0.0000
   1371 H          13.0463    6.3032   11.4610 H       1  UNL1        0.0000
   1372 H          23.9379    1.2156    2.3281 H       1  UNL1        0.0000
   1373 H           9.2809    0.6705   11.2803 H       1  UNL1        0.0000
   1374 H          27.7844    6.8235    2.2073 H       1  UNL1        0.0000
   1375 H          19.2813   -6.3528   11.3980 H       1  UNL1        0.0000
   1376 H          13.9434    8.1640    2.2092 H       1  UNL1        0.0000
   1377 H          20.8209    3.6085    6.1676 H       1  UNL1        0.0000
   1378 H          16.0677    3.9526    7.5536 H       1  UNL1        0.0000
   1379 H          12.3297   -1.7862    7.3499 H       1  UNL1        0.0000
   1380 H          18.7127    8.1242    0.0222 H       1  UNL1        0.0000
   1381 H          23.0918    6.8099    0.1930 H       1  UNL1        0.0000
   1382 H          16.4533    0.6431   11.2991 H       1  UNL1        0.0000
   1383 H          20.4515    6.9094    2.3142 H       1  UNL1        0.0000
   1384 H          19.6875   -2.3769    6.2548 H       1  UNL1        0.0000
   1385 H          17.3485    9.8113    7.4107 H       1  UNL1        0.0000
   1386 H          10.0052    4.0928    9.2252 H       1  UNL1        0.0000
   1387 H          26.9481    3.3951    4.4993 H       1  UNL1        0.0000
   1388 H          12.4684    2.4436    6.1119 H       1  UNL1        0.0000
   1389 H          14.9187   11.7364    4.4300 H       1  UNL1        0.0000
   1390 H          16.0225    6.1494    6.6399 H       1  UNL1        0.0000
   1391 H          17.4358    6.9136    5.9430 H       1  UNL1        0.0000
   1392 H          17.6822   12.7656    2.7307 H       1  UNL1        0.0000
   1393 H          23.9018   -0.8385    3.5277 H      45  UNL45       0.0000
   1394 H          23.4796   -0.3369   10.1543 H       1  UNL1        0.0000
   1395 H          22.1284   -1.1447   10.9219 H       1  UNL1        0.0000
   1396 H          26.0039    8.9972    6.5018 H       1  UNL1        0.0000
   1397 H          24.6322    8.2656    5.6930 H       1  UNL1        0.0000
   1398 H          24.1313    5.3558    8.7470 H       1  UNL1        0.0000
   1399 H          23.6357    5.6223    7.0837 H       1  UNL1        0.0000
   1400 H          23.0460   -4.9629    9.7009 H       1  UNL1        0.0000
   1401 H          21.7102   -3.9705   10.2619 H       1  UNL1        0.0000
   1402 C          24.7839    4.8443    4.8639 C.3     1  UNL1        0.0000
   1403 C          12.2010    2.6499    8.8102 C.3     1  UNL1        0.0000
   1404 C          19.9453   -2.6153    8.8641 C.2     1  UNL1        0.0000
   1405 C          17.0599   10.0909    4.7780 C.3     1  UNL1        0.0000
   1406 C          25.6164    4.2718    5.9322 C.ar    1  UNL1        0.0000
   1407 C          11.3099    3.2257    7.7659 C.ar    1  UNL1        0.0000
   1408 C          20.7958   -3.2713    7.8575 C.2     1  UNL1        0.0000
   1409 C          16.2141   10.7147    5.8344 C.ar    1  UNL1        0.0000
   1410 C          25.3159    4.4612    7.3208 C.ar    1  UNL1        0.0000
   1411 C          11.5957    3.0236    6.3983 C.ar    1  UNL1        0.0000
   1412 C          21.8822   -4.1352    8.2183 C.3     1  UNL1        0.0000
   1413 C          15.1352   11.5537    5.4788 C.ar    1  UNL1        0.0000
   1414 C          16.5108   10.4631    7.1697 C.ar    1  UNL1        0.0000
   1415 C          20.5204   -3.0358    6.4904 C.3     1  UNL1        0.0000
   1416 C          26.7546    3.5184    5.5624 C.ar    1  UNL1        0.0000
   1417 C          10.1977    3.9604    8.1623 C.ar    1  UNL1        0.0000
   1418 C          19.1041    4.8891    6.2548 C.ar    1  UNL1        0.0000
   1419 C          17.8030    2.7041    7.4502 C.ar    1  UNL1        0.0000
   1420 C          22.8951   10.2067    6.1603 C.ar    1  UNL1        0.0000
   1421 C          14.2271   -2.8136    7.5051 C.2     1  UNL1        0.0000
   1422 C          24.0504    1.2979    0.1936 C.2     1  UNL1        0.0000
   1423 C          17.7854   13.6606    0.2367 C.2     1  UNL1        0.0000
   1424 C          27.7372    6.7274    0.0675 C.2     1  UNL1        0.0000
   1425 C          14.1447    8.2303    0.0565 C.2     1  UNL1        0.0000
   1426 C          19.8266    5.9683    5.5604 C.3     1  UNL1        0.0000
   1427 C          17.1061    1.5564    8.1029 C.3     1  UNL1        0.0000
   1428 C          22.2221    9.1678    5.3722 C.3     1  UNL1        0.0000
   1429 C          14.8727   -1.7224    8.2864 C.2     1  UNL1        0.0000
   1430 C          24.1040    2.7869    0.1968 C.2     1  UNL1        0.0000
   1431 C          17.7670   12.1927    0.1906 C.2     1  UNL1        0.0000
   1432 C          26.4482    6.0183    0.0923 C.2     1  UNL1        0.0000
   1433 C          15.4430    8.9658    0.0931 C.2     1  UNL1        0.0000
   1434 C          17.7343    5.0168    6.6551 C.ar    1  UNL1        0.0000
   1435 C          19.1594    2.5868    7.0774 C.ar    1  UNL1        0.0000
   1436 C          22.1751   11.3799    6.4837 C.ar    1  UNL1        0.0000
   1437 C          14.9630   -3.9537    7.2020 C.3     1  UNL1        0.0000
   1438 C          23.9601    0.6312    1.4102 C.3     1  UNL1        0.0000
   1439 C          13.0210    6.8889   12.3769 C.ar    1  UNL1        0.0000
   1440 C          28.3154    7.1051    1.3012 C.2     1  UNL1        0.0000
   1441 C           8.7486    0.3916   12.1880 C.ar    1  UNL1        0.0000
   1442 C          24.2574   10.0731    6.5839 C.ar    1  UNL1        0.0000
   1443 C          12.8816   -2.6870    7.0978 C.3     1  UNL1        0.0000
   1444 C          19.7828    3.6701    6.4853 C.ar    1  UNL1        0.0000
   1445 C          17.1096    3.8921    7.2441 C.ar    1  UNL1        0.0000
   1446 C          23.5426   -0.4027   12.2058 C.ar    1  UNL1        0.0000
   1447 C          13.4992    7.8761    1.2610 C.2     1  UNL1        0.0000
   1448 C          19.2166   -6.8954   12.3367 C.3     1  UNL1        0.0000
   1449 C          17.7456   14.3858    1.4719 C.2     1  UNL1        0.0000
   1450 N          17.0274    6.1822    6.5234 N.pl3   1  UNL1        0.0000
   1451 N          17.6121   13.7802    2.6888 N.pl3   1  UNL1        0.0000
   1452 N          23.0745   -0.7715   10.9738 N.pl3   1  UNL1        0.0000
   1453 N          25.0045    8.9519    6.3474 N.pl3   1  UNL1        0.0000
   1454 N          24.2140    5.1337    7.7634 N.pl3   1  UNL1        0.0000
   1455 N          22.1942   -4.4519    9.5082 N.3     1  UNL1        0.0000
   1456 O          23.7643    5.5666    5.1888 O.3     1  UNL1        0.0000
   1457 O          13.1468    1.8726    8.4386 O.3     1  UNL1        0.0000
   1458 O          20.2186   -2.7986   10.1151 O.2     1  UNL1        0.0000
   1459 O          16.7290   10.2590    3.5561 O.3     1  UNL1        0.0000
   1460 O          18.0836    9.4106    5.1574 O.3     1  UNL1        0.0000
   1461 O          18.9704   -1.8740    8.4796 O.2     1  UNL1        0.0000
   1462 O          25.1002    4.6142    3.6375 O.3     1  UNL1        0.0000
   1463 O          11.9717    2.9665   10.0331 O.3     1  UNL1        0.0000
   1464 O          22.4289    4.9370    2.8396 O.3     1  UNL1        0.0000
   1465 O          14.6213    2.5267   10.7251 O.3     1  UNL1        0.0000
   1466 O          23.8422    6.9533    2.7727 O.3     1  UNL1        0.0000
   1467 O          13.1328    0.5784   10.9093 O.3     1  UNL1        0.0000
   1468 O          17.5727   -2.6048   10.7321 O.3     1  UNL1        0.0000
   1469 O          19.3750   10.1267    2.8688 O.3     1  UNL1        0.0000
   1470 O          18.8092   -0.4936   10.9852 O.3     1  UNL1        0.0000
   1471 O          18.2182    7.9589    2.7109 O.3     1  UNL1        0.0000
   1472 O          21.0702    5.7802    5.2705 O.3     1  UNL1        0.0000
   1473 O          15.8466    1.6363    8.2902 O.3     1  UNL1        0.0000
   1474 O          22.8511    8.1083    5.0458 O.3     1  UNL1        0.0000
   1475 O          14.1447   -0.7498    8.6740 O.2     1  UNL1        0.0000
   1476 O          19.2304   -4.0900   12.4264 O.2     1  UNL1        0.0000
   1477 O          17.6726   11.5255    1.2788 O.2     1  UNL1        0.0000
   1478 O          21.0257   -1.7669   12.3440 O.3     1  UNL1        0.0000
   1479 O          15.9798    9.1310    1.2474 O.2     1  UNL1        0.0000
   1480 O          20.9928    9.3639    5.0186 O.3     1  UNL1        0.0000
   1481 O          16.1200   -1.8168    8.5376 O.2     1  UNL1        0.0000
   1482 O          19.2041    7.0466    5.2579 O.3     1  UNL1        0.0000
   1483 O          17.8263    0.5543    8.4452 O.3     1  UNL1        0.0000
   1484 O          25.9283    5.7326    1.2368 O.2     1  UNL1        0.0000
   1485 O          11.0913    1.8941   12.3597 O.3     1  UNL1        0.0000
   1486 O          24.1579    3.3876    1.3147 O.2     1  UNL1        0.0000
   1487 O          13.0050    4.1300   12.4071 O.3     1  UNL1        0.0000
   1488 O          20.9034    7.4333    3.0002 O.3     1  UNL1        0.0000
   1489 O          16.0819    0.0680   10.6061 O.3     1  UNL1        0.0000
   1490 O          23.3198    5.8630    0.1856 O.3     1  UNL1        0.0000
   1491 O          18.5434    9.0808    0.1008 O.3     1  UNL1        0.0000
   1492 H          16.3375    3.2170   12.6672 H      20  UNL20       0.0000
   1493 H          17.8466    3.0771   10.3505 H      20  UNL20       0.0000
   1494 C          17.3646    2.9026   12.5203 C.2    20  UNL20       0.0000
   1495 H          20.3432    3.9383    9.6482 H      20  UNL20       0.0000
   1496 C          18.1094    2.8303   11.3712 C.2    20  UNL20       0.0000
   1497 H          17.6870    3.4235   15.3770 H      20  UNL20       0.0000
   1498 N          18.1802    2.4748   13.5587 N.pl3  20  UNL20       0.0000
   1499 C          21.0795    3.3532   10.2140 C.3    20  UNL20       0.0000
   1500 H          21.4943    3.9798   11.0135 H      20  UNL20       0.0000
   1501 C          17.8086    2.4102   14.9792 C.3    20  UNL20       0.0000
   1502 N          19.3625    2.3618   11.7204 N.pl3  20  UNL20       0.0000
   1503 H          16.8651    1.8630   15.0860 H      20  UNL20       0.0000
   1504 H          21.8931    3.0937    9.5197 H      20  UNL20       0.0000
   1505 C          19.3884    2.1545   13.0502 C.3    20  UNL20       0.0000
   1506 C          20.4671    2.0759   10.7754 C.3    20  UNL20       0.0000
   1507 H          20.0366    1.4358    9.9958 H      20  UNL20       0.0000
   1508 H          18.5875    1.8686   15.5279 H      20  UNL20       0.0000
   1509 H          20.2341    1.7866   13.6196 H      20  UNL20       0.0000
   1510 H          21.2014    1.4725   11.3234 H      20  UNL20       0.0000
   1511 TI          8.1783   -5.1968   24.9902 Ti      1  UNL1        0.0000
   1512 TI         19.2563   -2.1340   15.3795 Ti      1  UNL1        0.0000
   1513 TI         12.7232   -8.5116   23.0943 Ti      1  UNL1        0.0000
   1514 TI         14.6641    1.1797   17.2711 Ti      1  UNL1        0.0000
   1515 TI         12.9915    2.0681   15.3040 Ti      1  UNL1        0.0000
   1516 TI         14.1944   -9.6763   25.0635 Ti      1  UNL1        0.0000
   1517 TI          9.6255   -6.4971   23.0911 Ti      1  UNL1        0.0000
   1518 TI         17.5405   -1.0903   17.2282 Ti      1  UNL1        0.0000
   1519 H          14.8261   -5.8288   20.6142 H       1  UNL1        0.0000
   1520 H          11.1405  -11.4987   20.8999 H       1  UNL1        0.0000
   1521 H          16.2900    3.9655   19.5011 H       1  UNL1        0.0000
   1522 H           8.1908   -1.1765   24.8220 H       1  UNL1        0.0000
   1523 H          19.0824   -6.2641   15.6891 H       1  UNL1        0.0000
   1524 H           4.4254   -6.8092   24.6413 H       1  UNL1        0.0000
   1525 H          22.9288   -0.6563   15.5683 H       1  UNL1        0.0000
   1526 H          14.4258  -13.8325   24.7590 H       1  UNL1        0.0000
   1527 H           9.0879    0.6843   15.5702 H       1  UNL1        0.0000
   1528 H          15.9654   -3.8713   19.5286 H       1  UNL1        0.0000
   1529 H          11.2122   -3.5271   20.9146 H       1  UNL1        0.0000
   1530 H           7.4742   -9.2659   20.7109 H       1  UNL1        0.0000
   1531 H          13.8571    0.6445   13.3832 H       1  UNL1        0.0000
   1532 H          18.2363   -0.6699   13.5540 H       1  UNL1        0.0000
   1533 H          11.5978   -6.8366   24.6601 H       1  UNL1        0.0000
   1534 H          15.5960   -0.5704   15.6752 H       1  UNL1        0.0000
   1535 H          14.8320   -9.8566   19.6158 H       1  UNL1        0.0000
   1536 H          12.4929    2.3316   20.7717 H       1  UNL1        0.0000
   1537 H           5.1497   -3.3870   22.5862 H       1  UNL1        0.0000
   1538 H          22.0926   -4.0846   17.8603 H       1  UNL1        0.0000
   1539 H           7.6129   -5.0361   19.4729 H       1  UNL1        0.0000
   1540 H          10.0632    4.2567   17.7910 H       1  UNL1        0.0000
   1541 H          11.1670   -1.3303   20.0009 H       1  UNL1        0.0000
   1542 H          12.5803   -0.5662   19.3040 H       1  UNL1        0.0000
   1543 H          12.8267    5.2858   16.0917 H       1  UNL1        0.0000
   1544 H          19.0463   -8.3183   16.8887 H      45  UNL45       0.0000
   1545 H          18.6241   -7.8167   23.5153 H       1  UNL1        0.0000
   1546 H          17.2729   -8.6245   24.2829 H       1  UNL1        0.0000
   1547 H          21.1483    1.5175   19.8628 H       1  UNL1        0.0000
   1548 H          19.7767    0.7858   19.0540 H       1  UNL1        0.0000
   1549 H          19.2758   -2.1240   22.1080 H       1  UNL1        0.0000
   1550 H          18.7802   -1.8575   20.4447 H       1  UNL1        0.0000
   1551 H          18.1904  -12.4426   23.0619 H       1  UNL1        0.0000
   1552 H          16.8546  -11.4502   23.6229 H       1  UNL1        0.0000
   1553 C          19.9283   -2.6355   18.2249 C.3     1  UNL1        0.0000
   1554 C           7.3455   -4.8298   22.1712 C.3     1  UNL1        0.0000
   1555 C          15.0898  -10.0950   22.2251 C.2     1  UNL1        0.0000
   1556 C          12.2044    2.6111   18.1390 C.3     1  UNL1        0.0000
   1557 C          20.7609   -3.2079   19.2932 C.ar    1  UNL1        0.0000
   1558 C           6.4544   -4.2540   21.1269 C.ar    1  UNL1        0.0000
   1559 C          15.9403  -10.7511   21.2185 C.2     1  UNL1        0.0000
   1560 C          11.3585    3.2349   19.1954 C.ar    1  UNL1        0.0000
   1561 C          20.4604   -3.0185   20.6818 C.ar    1  UNL1        0.0000
   1562 C           6.7401   -4.4562   19.7593 C.ar    1  UNL1        0.0000
   1563 C          17.0267  -11.6149   21.5793 C.3     1  UNL1        0.0000
   1564 C          10.2796    4.0740   18.8398 C.ar    1  UNL1        0.0000
   1565 C          11.6553    2.9833   20.5307 C.ar    1  UNL1        0.0000
   1566 C          15.6649  -10.5156   19.8514 C.3     1  UNL1        0.0000
   1567 C          21.8991   -3.9613   18.9234 C.ar    1  UNL1        0.0000
   1568 C           5.3421   -3.5194   21.5233 C.ar    1  UNL1        0.0000
   1569 C          14.2486   -2.5907   19.6158 C.ar    1  UNL1        0.0000
   1570 C          12.9475   -4.7756   20.8112 C.ar    1  UNL1        0.0000
   1571 C          18.0396    2.7269   19.5213 C.ar    1  UNL1        0.0000
   1572 C           9.3715  -10.2934   20.8661 C.2     1  UNL1        0.0000
   1573 C          19.1949   -6.1818   13.5546 C.2     1  UNL1        0.0000
   1574 C          12.9299    6.1808   13.5977 C.ar    1  UNL1        0.0000
   1575 C          22.8817   -0.7523   13.4285 C.ar    1  UNL1        0.0000
   1576 C           9.2892    0.7506   13.4175 C.ar    1  UNL1        0.0000
   1577 C          14.9711   -1.5114   18.9214 C.3     1  UNL1        0.0000
   1578 C          12.2506   -5.9233   21.4639 C.3     1  UNL1        0.0000
   1579 C          17.3665    1.6881   18.7332 C.3     1  UNL1        0.0000
   1580 C          10.0172   -9.2021   21.6474 C.2     1  UNL1        0.0000
   1581 C          19.2485   -4.6928   13.5578 C.2     1  UNL1        0.0000
   1582 C          12.9115    4.7130   13.5516 C.3     1  UNL1        0.0000
   1583 C          21.5927   -1.4614   13.4533 C.3     1  UNL1        0.0000
   1584 C          10.5874    1.4861   13.4541 C.3     1  UNL1        0.0000
   1585 C          12.8788   -2.4629   20.0161 C.ar    1  UNL1        0.0000
   1586 C          14.3039   -4.8930   20.4384 C.ar    1  UNL1        0.0000
   1587 C          17.3195    3.9002   19.8447 C.ar    1  UNL1        0.0000
   1588 C          10.1075  -11.4335   20.5630 C.3     1  UNL1        0.0000
   1589 C          19.1046   -6.8485   14.7712 C.3     1  UNL1        0.0000
   1590 C           8.1655   -0.5909   25.7379 C.ar    1  UNL1        0.0000
   1591 C          23.4599   -0.3746   14.6622 C.ar    1  UNL1        0.0000
   1592 C           3.8931   -7.0881   25.5490 C.ar    1  UNL1        0.0000
   1593 C          19.4018    2.5934   19.9449 C.ar    1  UNL1        0.0000
   1594 C           8.0261  -10.1668   20.4588 C.3     1  UNL1        0.0000
   1595 C          14.9272   -3.8096   19.8463 C.ar    1  UNL1        0.0000
   1596 C          12.2541   -3.5876   20.6051 C.ar    1  UNL1        0.0000
   1597 C          18.6871   -7.8825   25.5668 C.ar    1  UNL1        0.0000
   1598 C           8.6437    0.3963   14.6220 C.ar    1  UNL1        0.0000
   1599 C          14.3611  -14.3752   25.6977 C.3     1  UNL1        0.0000
   1600 C          12.8901    6.9061   14.8329 C.ar    1  UNL1        0.0000
   1601 N          12.1719   -1.2976   19.8844 N.pl3   1  UNL1        0.0000
   1602 N          12.7566    6.3004   16.0498 N.pl3   1  UNL1        0.0000
   1603 N          18.2190   -8.2512   24.3348 N.pl3   1  UNL1        0.0000
   1604 N          20.1490    1.4721   19.7084 N.pl3   1  UNL1        0.0000
   1605 N          19.3584   -2.3460   21.1244 N.pl3   1  UNL1        0.0000
   1606 N          17.3387  -11.9317   22.8692 N.3     1  UNL1        0.0000
   1607 O          18.9087   -1.9132   18.5498 O.3     1  UNL1        0.0000
   1608 O           8.2913   -5.6071   21.7996 O.3     1  UNL1        0.0000
   1609 O          15.3631  -10.2784   23.4761 O.2     1  UNL1        0.0000
   1610 O          11.8734    2.7793   16.9171 O.3     1  UNL1        0.0000
   1611 O          13.2281    1.9309   18.5184 O.3     1  UNL1        0.0000
   1612 O          14.1149   -9.3537   21.8406 O.2     1  UNL1        0.0000
   1613 O          20.2447   -2.8655   16.9985 O.3     1  UNL1        0.0000
   1614 O           7.1161   -4.5132   23.3941 O.3     1  UNL1        0.0000
   1615 O          17.5734   -2.5428   16.2006 O.3     1  UNL1        0.0000
   1616 O           9.7658   -4.9530   24.0861 O.3     1  UNL1        0.0000
   1617 O          18.9866   -0.5264   16.1337 O.3     1  UNL1        0.0000
   1618 O           8.2773   -6.9014   24.2703 O.3     1  UNL1        0.0000
   1619 O          12.7171  -10.0845   24.0931 O.3     1  UNL1        0.0000
   1620 O          14.5195    2.6469   16.2298 O.3     1  UNL1        0.0000
   1621 O          13.9537   -7.9733   24.3462 O.3     1  UNL1        0.0000
   1622 O          13.3627    0.4792   16.0719 O.3     1  UNL1        0.0000
   1623 O          16.2147   -1.6995   18.6315 O.3     1  UNL1        0.0000
   1624 O          10.9910   -5.8434   21.6512 O.3     1  UNL1        0.0000
   1625 O          17.9955    0.6285   18.4068 O.3     1  UNL1        0.0000
   1626 O           9.2892   -8.2295   22.0350 O.2     1  UNL1        0.0000
   1627 O          14.3748  -11.5698   25.7874 O.2     1  UNL1        0.0000
   1628 O          12.8171    4.0458   14.6398 O.3     1  UNL1        0.0000
   1629 O          16.1702   -9.2466   25.7050 O.3     1  UNL1        0.0000
   1630 O          11.1242    1.6513   14.6084 O.3     1  UNL1        0.0000
   1631 O          16.1372    1.8841   18.3796 O.3     1  UNL1        0.0000
   1632 O          11.2645   -9.2966   21.8986 O.2     1  UNL1        0.0000
   1633 O          14.3486   -0.4331   18.6189 O.3     1  UNL1        0.0000
   1634 O          12.9708   -6.9254   21.8062 O.3     1  UNL1        0.0000
   1635 O          21.0727   -1.7472   14.5978 O.3     1  UNL1        0.0000
   1636 O           6.2358   -5.5856   25.7207 O.3     1  UNL1        0.0000
   1637 O          19.3024   -4.0922   14.6757 O.2     1  UNL1        0.0000
   1638 O           8.1495   -3.3498   25.7681 O.3     1  UNL1        0.0000
   1639 O          16.0479   -0.0465   16.3612 O.3     1  UNL1        0.0000
   1640 O          11.2264   -7.4117   23.9671 O.3     1  UNL1        0.0000
   1641 O          18.4643   -1.6168   13.5466 O.3     1  UNL1        0.0000
   1642 O          13.6879    1.6010   13.4618 O.3     1  UNL1        0.0000
   1643 H          11.4820   -4.2627   26.0282 H      22  UNL22       0.0000
   1644 H          12.9911   -4.4026   23.7115 H      22  UNL22       0.0000
   1645 C          12.5090   -4.5772   25.8813 C.2    22  UNL22       0.0000
   1646 H          15.4877   -3.5415   23.0092 H      22  UNL22       0.0000
   1647 C          13.2538   -4.6495   24.7322 C.2    22  UNL22       0.0000
   1648 H          12.8315   -4.0563   28.7380 H      22  UNL22       0.0000
   1649 N          13.3247   -5.0049   26.9197 N.pl3  22  UNL22       0.0000
   1650 C          16.2240   -4.1266   23.5750 C.3    22  UNL22       0.0000
   1651 H          16.6388   -3.4999   24.3745 H      22  UNL22       0.0000
   1652 C          12.9531   -5.0695   28.3402 C.3    22  UNL22       0.0000
   1653 N          14.5070   -5.1179   25.0814 N.pl3  22  UNL22       0.0000
   1654 H          12.0095   -5.6167   28.4470 H      22  UNL22       0.0000
   1655 H          17.0376   -4.3861   22.8807 H      22  UNL22       0.0000
   1656 C          14.5329   -5.3252   26.4112 C.3    22  UNL22       0.0000
   1657 C          15.6116   -5.4039   24.1364 C.3    22  UNL22       0.0000
   1658 H          15.1811   -6.0439   23.3568 H      22  UNL22       0.0000
   1659 H          13.7319   -5.6111   28.8889 H      22  UNL22       0.0000
   1660 H          15.3786   -5.6931   26.9806 H      22  UNL22       0.0000
   1661 H          16.3459   -6.0072   24.6844 H      22  UNL22       0.0000
   1662 TI          3.3228  -12.6765   38.3512 Ti      1  UNL1        0.0000
   1663 TI         14.4008   -9.6138   28.7405 Ti      1  UNL1        0.0000
   1664 TI          7.8677  -15.9913   36.4553 Ti      1  UNL1        0.0000
   1665 TI          9.8086   -6.3000   30.6321 Ti      1  UNL1        0.0000
   1666 TI          8.1359   -5.4116   28.6650 Ti      1  UNL1        0.0000
   1667 TI          9.3389  -17.1560   38.4245 Ti      1  UNL1        0.0000
   1668 TI          4.7700  -13.9769   36.4521 Ti      1  UNL1        0.0000
   1669 TI         12.6849   -8.5701   30.5892 Ti      1  UNL1        0.0000
   1670 H           9.9706  -13.3085   33.9752 H       1  UNL1        0.0000
   1671 H           6.2850  -18.9784   34.2609 H       1  UNL1        0.0000
   1672 H          11.4345   -3.5142   32.8621 H       1  UNL1        0.0000
   1673 H           3.3353   -8.6563   38.1830 H      11  UNL11       0.0000
   1674 H          14.2269  -13.7439   29.0501 H       1  UNL1        0.0000
   1675 H          -0.4301  -14.2890   38.0023 H       3  UNL3        0.0000
   1676 H          18.0733   -8.1360   28.9293 H       1  UNL1        0.0000
   1677 H           9.5703  -21.3122   38.1200 H      13  UNL13       0.0000
   1678 H           4.2324   -6.7955   28.9312 H       1  UNL1        0.0000
   1679 H          11.1099  -11.3510   32.8896 H       1  UNL1        0.0000
   1680 H           6.3567  -11.0068   34.2756 H       1  UNL1        0.0000
   1681 H           2.6187  -16.7457   34.0719 H       1  UNL1        0.0000
   1682 H           9.0016   -6.8352   26.7442 H       1  UNL1        0.0000
   1683 H          13.3807   -8.1496   26.9150 H       1  UNL1        0.0000
   1684 H           6.7423  -14.3163   38.0211 H       1  UNL1        0.0000
   1685 H          10.7404   -8.0501   29.0362 H       1  UNL1        0.0000
   1686 H           9.9765  -17.3364   32.9768 H       1  UNL1        0.0000
   1687 H           7.6374   -5.1482   34.1327 H       1  UNL1        0.0000
   1688 H           0.2941  -10.8667   35.9472 H       1  UNL1        0.0000
   1689 H          17.2371  -11.5644   31.2213 H       1  UNL1        0.0000
   1690 H           2.7573  -12.5158   32.8339 H       1  UNL1        0.0000
   1691 H           5.2076   -3.2230   31.1520 H       1  UNL1        0.0000
   1692 H           6.3114   -8.8101   33.3619 H       1  UNL1        0.0000
   1693 H           7.7248   -8.0459   32.6650 H       1  UNL1        0.0000
   1694 H           7.9712   -2.1939   29.4527 H       1  UNL1        0.0000
   1695 H          14.1908  -15.7980   30.2497 H      45  UNL45       0.0000
   1696 H          13.7686  -15.2964   36.8763 H      12  UNL12       0.0000
   1697 H          12.4173  -16.1042   37.6439 H      12  UNL12       0.0000
   1698 H          16.2928   -5.9623   33.2238 H       1  UNL1        0.0000
   1699 H          14.9212   -6.6939   32.4150 H       1  UNL1        0.0000
   1700 H          14.4203   -9.6037   35.4690 H       1  UNL1        0.0000
   1701 H          13.9247   -9.3372   33.8057 H       1  UNL1        0.0000
   1702 H          13.3349  -19.9224   36.4229 H       1  UNL1        0.0000
   1703 H          11.9991  -18.9300   36.9839 H       1  UNL1        0.0000
   1704 C          15.0728  -10.1152   31.5859 C.3     1  UNL1        0.0000
   1705 C           2.4899  -12.3096   35.5322 C.3     1  UNL1        0.0000
   1706 C          10.2343  -17.5748   35.5861 C.2     1  UNL1        0.0000
   1707 C           7.3489   -4.8686   31.5000 C.3     1  UNL1        0.0000
   1708 C          15.9054  -10.6877   32.6542 C.ar    1  UNL1        0.0000
   1709 C           1.5989  -11.7337   34.4879 C.ar    1  UNL1        0.0000
   1710 C          11.0847  -18.2308   34.5795 C.2     1  UNL1        0.0000
   1711 C           6.5030   -4.2448   32.5564 C.ar    1  UNL1        0.0000
   1712 C          15.6049  -10.4983   34.0428 C.ar    1  UNL1        0.0000
   1713 C           1.8846  -11.9359   33.1203 C.ar    1  UNL1        0.0000
   1714 C          12.1711  -19.0946   34.9403 C.3     1  UNL1        0.0000
   1715 C           5.4241   -3.4058   32.2008 C.ar    1  UNL1        0.0000
   1716 C           6.7998   -4.4964   33.8917 C.ar    1  UNL1        0.0000
   1717 C          10.8094  -17.9953   33.2124 C.3     1  UNL1        0.0000
   1718 C          17.0436  -11.4411   32.2844 C.ar    1  UNL1        0.0000
   1719 C           0.4866  -10.9991   34.8843 C.ar    1  UNL1        0.0000
   1720 C           9.3931  -10.0704   32.9768 C.ar    1  UNL1        0.0000
   1721 C           8.0920  -12.2554   34.1722 C.ar    1  UNL1        0.0000
   1722 C          13.1840   -4.7528   32.8823 C.ar    1  UNL1        0.0000
   1723 C           4.5160  -17.7731   34.2271 C.2     1  UNL1        0.0000
   1724 C          14.3394  -13.6616   26.9156 C.2     1  UNL1        0.0000
   1725 C           8.0744   -1.2989   26.9587 C.ar    1  UNL1        0.0000
   1726 C          18.0261   -8.2321   26.7895 C.ar    1  UNL1        0.0000
   1727 C           4.4337   -6.7292   26.7785 C.ar    1  UNL1        0.0000
   1728 C          10.1156   -8.9912   32.2824 C.3     1  UNL1        0.0000
   1729 C           7.3950  -13.4030   34.8249 C.3     1  UNL1        0.0000
   1730 C          12.5110   -5.7916   32.0942 C.3     1  UNL1        0.0000
   1731 C           5.1616  -16.6819   35.0084 C.2     1  UNL1        0.0000
   1732 C          14.3930  -12.1726   26.9188 C.2     1  UNL1        0.0000
   1733 C           8.0560   -2.7667   26.9126 C.3     1  UNL1        0.0000
   1734 C          16.7372   -8.9411   26.8143 C.3     1  UNL1        0.0000
   1735 C           5.7319   -5.9937   26.8151 C.3     1  UNL1        0.0000
   1736 C           8.0233   -9.9427   33.3771 C.ar    1  UNL1        0.0000
   1737 C           9.4483  -12.3727   33.7994 C.ar    1  UNL1        0.0000
   1738 C          12.4640   -3.5795   33.2057 C.ar    1  UNL1        0.0000
   1739 C           5.2519  -18.9132   33.9240 C.3     1  UNL1        0.0000
   1740 C          14.2490  -14.3283   28.1322 C.3     1  UNL1        0.0000
   1741 C           3.3100   -8.0706   39.0989 C.2    11  UNL11       0.0000
   1742 C          18.6044   -7.8544   28.0232 C.ar    1  UNL1        0.0000
   1743 C          -0.9624  -14.5678   38.9100 C.2     3  UNL3        0.0000
   1744 C          14.5463   -4.8864   33.3059 C.ar    1  UNL1        0.0000
   1745 C           3.1706  -17.6465   33.8198 C.3     1  UNL1        0.0000
   1746 C          10.0717  -11.2894   33.2073 C.ar    1  UNL1        0.0000
   1747 C           7.3986  -11.0674   33.9661 C.ar    1  UNL1        0.0000
   1748 C          13.8316  -15.3622   38.9278 C.2    12  UNL12       0.0000
   1749 C           3.7882   -7.0834   27.9830 C.ar    1  UNL1        0.0000
   1750 C           9.5056  -21.8549   39.0587 C.3    24  UNL24       0.0000
   1751 C           8.0346   -0.5737   28.1939 C.ar    1  UNL1        0.0000
   1752 N           7.3164   -8.7773   33.2454 N.pl3   1  UNL1        0.0000
   1753 N           7.9010   -1.1793   29.4108 N.pl3   1  UNL1        0.0000
   1754 N          13.3634  -15.7309   37.6958 N.pl3  12  UNL12       0.0000
   1755 N          15.2935   -6.0076   33.0694 N.pl3   1  UNL1        0.0000
   1756 N          14.5029   -9.8258   34.4854 N.pl3   1  UNL1        0.0000
   1757 N          12.4832  -19.4114   36.2302 N.3     1  UNL1        0.0000
   1758 O          14.0532   -9.3929   31.9108 O.3     1  UNL1        0.0000
   1759 O           3.4358  -13.0869   35.1606 O.3     1  UNL1        0.0000
   1760 O          10.5076  -17.7581   36.8371 O.2     1  UNL1        0.0000
   1761 O           7.0179   -4.7004   30.2781 O.3     1  UNL1        0.0000
   1762 O           8.3725   -5.5489   31.8794 O.3     1  UNL1        0.0000
   1763 O           9.2594  -16.8335   35.2016 O.2     1  UNL1        0.0000
   1764 O          15.3892  -10.3453   30.3595 O.3     1  UNL1        0.0000
   1765 O           2.2606  -11.9929   36.7551 O.3     1  UNL1        0.0000
   1766 O          12.7178  -10.0225   29.5616 O.3     1  UNL1        0.0000
   1767 O           4.9103  -12.4327   37.4471 O.3     1  UNL1        0.0000
   1768 O          14.1311   -8.0062   29.4947 O.3     1  UNL1        0.0000
   1769 O           3.4217  -14.3811   37.6313 O.3     1  UNL1        0.0000
   1770 O           7.8616  -17.5643   37.4540 O.3     1  UNL1        0.0000
   1771 O           9.6640   -4.8328   29.5908 O.3     1  UNL1        0.0000
   1772 O           9.0982  -15.4530   37.7072 O.3     1  UNL1        0.0000
   1773 O           8.5072   -7.0006   29.4329 O.3     1  UNL1        0.0000
   1774 O          11.3591   -9.1793   31.9925 O.3     1  UNL1        0.0000
   1775 O           6.1355  -13.3232   35.0122 O.3     1  UNL1        0.0000
   1776 O          13.1400   -6.8512   31.7678 O.3     1  UNL1        0.0000
   1777 O           4.4336  -15.7092   35.3960 O.2     1  UNL1        0.0000
   1778 O           9.5193  -19.0495   39.1484 O.3     1  UNL1        0.0000
   1779 O           7.9615   -3.4340   28.0007 O.3     1  UNL1        0.0000
   1780 O          11.3147  -16.7263   39.0660 O.3     1  UNL1        0.0000
   1781 O           6.2687   -5.8285   27.9694 O.3     1  UNL1        0.0000
   1782 O          11.2817   -5.5956   31.7406 O.3     1  UNL1        0.0000
   1783 O           6.4090  -16.7763   35.2596 O.2     1  UNL1        0.0000
   1784 O           9.4930   -7.9129   31.9799 O.3     1  UNL1        0.0000
   1785 O           8.1153  -14.4051   35.1672 O.3     1  UNL1        0.0000
   1786 O          16.2172   -9.2269   27.9588 O.3     1  UNL1        0.0000
   1787 O           1.3803  -13.0654   39.0817 O.3     1  UNL1        0.0000
   1788 O          14.4468  -11.5719   28.0367 O.2     1  UNL1        0.0000
   1789 O           3.2940  -10.8295   39.1291 O.3     1  UNL1        0.0000
   1790 O          11.1923   -7.5262   29.7222 O.3     1  UNL1        0.0000
   1791 O           6.3708  -14.8915   37.3281 O.3     1  UNL1        0.0000
   1792 O          13.6088   -9.0965   26.9076 O.3     1  UNL1        0.0000
   1793 O           8.8324   -5.8787   26.8228 O.3     1  UNL1        0.0000
   1794 H           6.6264  -11.7424   39.3892 H      25  UNL25       0.0000
   1795 H           8.1356  -11.8823   37.0725 H      25  UNL25       0.0000
   1796 C           7.6535  -12.0569   39.2423 C.2    25  UNL25       0.0000
   1797 H          10.6321  -11.0212   36.3702 H      25  UNL25       0.0000
   1798 C           8.3983  -12.1292   38.0932 C.2    25  UNL25       0.0000
   1799 H           7.9759  -11.5360   42.0990 H      25  UNL25       0.0000
   1800 N           8.4691  -12.4847   40.2807 N.pl3  25  UNL25       0.0000
   1801 C          11.3685  -11.6063   36.9360 C.3    25  UNL25       0.0000
   1802 H          11.7832  -10.9797   37.7355 H      25  UNL25       0.0000
   1803 C           8.0975  -12.5493   41.7012 C.3    25  UNL25       0.0000
   1804 N           9.6515  -12.5976   38.4424 N.pl3  25  UNL25       0.0000
   1805 H           7.1540  -13.0964   41.8080 H      25  UNL25       0.0000
   1806 H          12.1820  -11.8658   36.2417 H      25  UNL25       0.0000
   1807 C           9.6773  -12.8050   39.7722 C.3    25  UNL25       0.0000
   1808 C          10.7561  -12.8836   37.4974 C.3    25  UNL25       0.0000
   1809 H          10.3256  -13.5236   36.7177 H      25  UNL25       0.0000
   1810 H           8.8764  -13.0908   42.2499 H      25  UNL25       0.0000
   1811 H          10.5230  -13.1728   40.3416 H      25  UNL25       0.0000
   1812 H          11.4904  -13.4869   38.0454 H      25  UNL25       0.0000
   1813 TI          6.8970   17.4484   11.6278 Ti      1  UNL1        0.0000
   1814 TI         17.9750   20.5112    2.0171 Ti      1  UNL1        0.0000
   1815 TI         11.4419   14.1336    9.7319 Ti      1  UNL1        0.0000
   1816 TI         13.3828   23.8249    3.9087 Ti      1  UNL1        0.0000
   1817 TI         11.7101   24.7133    1.9416 Ti      1  UNL1        0.0000
   1818 TI         12.9131   12.9689   11.7011 Ti      1  UNL1        0.0000
   1819 TI          8.3442   16.1481    9.7287 Ti      1  UNL1        0.0000
   1820 TI         16.2591   21.5549    3.8658 Ti      1  UNL1        0.0000
   1821 H          13.5448   16.8164    7.2518 H       1  UNL1        0.0000
   1822 H           9.8592   11.1465    7.5375 H       1  UNL1        0.0000
   1823 H          15.0087   26.6107    6.1387 H       1  UNL1        0.0000
   1824 H           6.9095   21.4687   11.4596 H       1  UNL1        0.0000
   1825 H          17.8011   16.3811    2.3267 H       1  UNL1        0.0000
   1826 H           3.1441   15.8360   11.2788 H       1  UNL1        0.0000
   1827 H          21.6475   21.9889    2.2058 H       1  UNL1        0.0000
   1828 H          13.1444    8.8127   11.3966 H       1  UNL1        0.0000
   1829 H           7.8066   23.3295    2.2078 H       1  UNL1        0.0000
   1830 H          14.6841   18.7739    6.1662 H       1  UNL1        0.0000
   1831 H           9.9309   19.1181    7.5522 H       1  UNL1        0.0000
   1832 H           6.1929   13.3793    7.3485 H       1  UNL1        0.0000
   1833 H          12.5758   23.2897    0.0208 H       1  UNL1        0.0000
   1834 H          16.9549   21.9753    0.1916 H       1  UNL1        0.0000
   1835 H          10.3165   15.8086   11.2977 H       1  UNL1        0.0000
   1836 H          14.3146   22.0748    2.3128 H       1  UNL1        0.0000
   1837 H          13.5507   12.7886    6.2534 H       1  UNL1        0.0000
   1838 H          11.2116   24.9768    7.4093 H       1  UNL1        0.0000
   1839 H           3.8683   19.2582    9.2238 H       1  UNL1        0.0000
   1840 H          20.8113   18.5606    4.4979 H       1  UNL1        0.0000
   1841 H           6.3315   17.6091    6.1105 H       1  UNL1        0.0000
   1842 H           8.7818   26.9019    4.4286 H       1  UNL1        0.0000
   1843 H           9.8856   21.3149    6.6384 H       1  UNL1        0.0000
   1844 H          11.2990   22.0790    5.9416 H       1  UNL1        0.0000
   1845 H          11.5454   27.9310    2.7292 H       1  UNL1        0.0000
   1846 H          17.7650   14.3270    3.5263 H       1  UNL1        0.0000
   1847 H          17.3427   14.8285   10.1529 H       1  UNL1        0.0000
   1848 H          15.9915   14.0207   10.9205 H       1  UNL1        0.0000
   1849 H          19.8670   24.1627    6.5004 H       1  UNL1        0.0000
   1850 H          18.4954   23.4310    5.6916 H       1  UNL1        0.0000
   1851 H          17.9945   20.5212    8.7456 H       1  UNL1        0.0000
   1852 H          17.4988   20.7877    7.0823 H       1  UNL1        0.0000
   1853 H          16.9091   10.2026    9.6995 H       1  UNL1        0.0000
   1854 H          15.5733   11.1950   10.2605 H       1  UNL1        0.0000
   1855 C          18.6470   20.0097    4.8624 C.3     1  UNL1        0.0000
   1856 C           6.0641   17.8154    8.8088 C.3     1  UNL1        0.0000
   1857 C          13.8085   12.5502    8.8627 C.3     1  UNL1        0.0000
   1858 C          10.9231   25.2563    4.7766 C.3     1  UNL1        0.0000
   1859 C          19.4796   19.4373    5.9308 C.ar    1  UNL1        0.0000
   1860 C           5.1731   18.3912    7.7645 C.ar    1  UNL1        0.0000
   1861 C          14.6589   11.8941    7.8560 C.ar    1  UNL1        0.0000
   1862 C          10.0772   25.8801    5.8330 C.ar    1  UNL1        0.0000
   1863 C          19.1791   19.6267    7.3194 C.ar    1  UNL1        0.0000
   1864 C           5.4588   18.1890    6.3969 C.ar    1  UNL1        0.0000
   1865 C          15.7453   11.0303    8.2168 C.ar    1  UNL1        0.0000
   1866 C           8.9983   26.7192    5.4774 C.ar    1  UNL1        0.0000
   1867 C          10.3739   25.6285    7.1683 C.ar    1  UNL1        0.0000
   1868 C          14.3836   12.1296    6.4890 C.ar    1  UNL1        0.0000
   1869 C          20.6178   18.6839    5.5610 C.ar    1  UNL1        0.0000
   1870 C           4.0608   19.1258    8.1609 C.ar    1  UNL1        0.0000
   1871 C          12.9673   20.0545    6.2533 C.ar    1  UNL1        0.0000
   1872 C          11.6662   17.8696    7.4488 C.ar    1  UNL1        0.0000
   1873 C          16.7582   25.3721    6.1589 C.ar    1  UNL1        0.0000
   1874 C           8.0902   12.3518    7.5037 C.ar    1  UNL1        0.0000
   1875 C          17.9136   16.4634    0.1922 C.2     1  UNL1        0.0000
   1876 C          11.6486   28.8260    0.2353 C.2     1  UNL1        0.0000
   1877 C          21.6003   21.8929    0.0661 C.2     1  UNL1        0.0000
   1878 C           8.0079   23.3958    0.0551 C.2     1  UNL1        0.0000
   1879 C          13.6898   21.1338    5.5590 C.3     1  UNL1        0.0000
   1880 C          10.9692   16.7219    8.1015 C.3     1  UNL1        0.0000
   1881 C          16.0852   24.3333    5.3708 C.3     1  UNL1        0.0000
   1882 C           8.7358   13.4431    8.2850 C.3     1  UNL1        0.0000
   1883 C          17.9672   17.9524    0.1954 C.2     1  UNL1        0.0000
   1884 C          11.6301   27.3582    0.1892 C.2     1  UNL1        0.0000
   1885 C          20.3114   21.1838    0.0909 C.2     1  UNL1        0.0000
   1886 C           9.3061   24.1313    0.0917 C.2     1  UNL1        0.0000
   1887 C          11.5975   20.1823    6.6537 C.ar    1  UNL1        0.0000
   1888 C          13.0225   17.7522    7.0760 C.ar    1  UNL1        0.0000
   1889 C          16.0382   26.5454    6.4823 C.ar    1  UNL1        0.0000
   1890 C           8.8261   11.2117    7.2006 C.ar    1  UNL1        0.0000
   1891 C          17.8232   15.7967    1.4088 C.2     1  UNL1        0.0000
   1892 C           6.8842   22.0543   12.3755 C.ar    1  UNL1        0.0000
   1893 C          22.1786   22.2706    1.2998 C.2     1  UNL1        0.0000
   1894 C           2.6118   15.5571   12.1866 C.ar    1  UNL1        0.0000
   1895 C          18.1205   25.2386    6.5825 C.ar    1  UNL1        0.0000
   1896 C           6.7448   12.4784    7.0964 C.ar    1  UNL1        0.0000
   1897 C          13.6459   18.8356    6.4838 C.ar    1  UNL1        0.0000
   1898 C          10.9728   19.0576    7.2427 C.ar    1  UNL1        0.0000
   1899 C          17.4057   14.7627   12.2044 C.ar    1  UNL1        0.0000
   1900 C           7.3624   23.0415    1.2596 C.2     1  UNL1        0.0000
   1901 C          13.0798    8.2700   12.3353 C.ar    1  UNL1        0.0000
   1902 C          11.6088   29.5513    1.4705 C.2     1  UNL1        0.0000
   1903 N          10.8906   21.3476    6.5220 N.pl3   1  UNL1        0.0000
   1904 N          11.4752   28.9456    2.6874 N.pl3   1  UNL1        0.0000
   1905 N          16.9376   14.3940   10.9723 N.pl3   1  UNL1        0.0000
   1906 N          18.8677   24.1173    6.3460 N.pl3   1  UNL1        0.0000
   1907 N          18.0771   20.2992    7.7620 N.pl3   1  UNL1        0.0000
   1908 N          16.0574   10.7135    9.5068 N.pl3   1  UNL1        0.0000
   1909 O          17.6274   20.7320    5.1874 O.3     1  UNL1        0.0000
   1910 O           7.0100   17.0381    8.4372 O.3     1  UNL1        0.0000
   1911 O          14.0817   12.3668   10.1137 O.3     1  UNL1        0.0000
   1912 O          10.5921   25.4245    3.5547 O.3     1  UNL1        0.0000
   1913 O          11.9467   24.5761    5.1559 O.3     1  UNL1        0.0000
   1914 O          12.8336   13.2915    8.4782 O.3     1  UNL1        0.0000
   1915 O          18.9634   19.7797    3.6361 O.3     1  UNL1        0.0000
   1916 O           5.8348   18.1320   10.0317 O.3     1  UNL1        0.0000
   1917 O          16.2920   20.1024    2.8382 O.3     1  UNL1        0.0000
   1918 O           8.4845   17.6922   10.7237 O.3     1  UNL1        0.0000
   1919 O          17.7053   22.1188    2.7713 O.3     1  UNL1        0.0000
   1920 O           6.9959   15.7438   10.9079 O.3     1  UNL1        0.0000
   1921 O          11.4358   12.5607   10.7306 O.3     1  UNL1        0.0000
   1922 O          13.2382   25.2921    2.8673 O.3     1  UNL1        0.0000
   1923 O          12.6724   14.6719   10.9838 O.3     1  UNL1        0.0000
   1924 O          12.0814   23.1244    2.7095 O.3     1  UNL1        0.0000
   1925 O          14.9333   20.9457    5.2690 O.3     1  UNL1        0.0000
   1926 O           9.7097   16.8018    8.2888 O.3     1  UNL1        0.0000
   1927 O          16.7142   23.2737    5.0444 O.3     1  UNL1        0.0000
   1928 O           8.0078   14.4157    8.6726 O.3     1  UNL1        0.0000
   1929 O          13.0935   11.0754   12.4249 O.3     1  UNL1        0.0000
   1930 O          11.5357   26.6910    1.2773 O.2     1  UNL1        0.0000
   1931 O          14.8889   13.3986   12.3426 O.3     1  UNL1        0.0000
   1932 O           9.8429   24.2965    1.2460 O.2     1  UNL1        0.0000
   1933 O          14.8559   24.5293    5.0172 O.3     1  UNL1        0.0000
   1934 O           9.9832   13.3486    8.5362 O.3     1  UNL1        0.0000
   1935 O          13.0672   22.2121    5.2565 O.3     1  UNL1        0.0000
   1936 O          11.6895   15.7198    8.4438 O.3     1  UNL1        0.0000
   1937 O          19.7914   20.8980    1.2354 O.2     1  UNL1        0.0000
   1938 O           4.9545   17.0596   12.3583 O.3     1  UNL1        0.0000
   1939 O          18.0210   18.5530    1.3133 O.2     1  UNL1        0.0000
   1940 O           6.8682   19.2954   12.4057 O.3     1  UNL1        0.0000
   1941 O          14.7665   22.5987    2.9988 O.3     1  UNL1        0.0000
   1942 O           9.9450   15.2335   10.6047 O.3     1  UNL1        0.0000
   1943 O          17.1830   21.0284    0.1842 O.3     1  UNL1        0.0000
   1944 O          12.4066   24.2462    0.0994 O.3     1  UNL1        0.0000
   1945 H          10.2006   18.3825   12.6658 H      26  UNL26       0.0000
   1946 H          11.7098   18.2426   10.3491 H      26  UNL26       0.0000
   1947 C          11.2277   18.0680   12.5189 C.2    26  UNL26       0.0000
   1948 H          14.2063   19.1037    9.6468 H      26  UNL26       0.0000
   1949 C          11.9725   17.9957   11.3698 C.2    26  UNL26       0.0000
   1950 H          11.5501   18.5889   15.3756 H      26  UNL26       0.0000
   1951 N          12.0433   17.6403   13.5573 N.pl3  26  UNL26       0.0000
   1952 C          14.9427   18.5186   10.2126 C.3    26  UNL26       0.0000
   1953 H          15.3574   19.1453   11.0121 H      26  UNL26       0.0000
   1954 C          11.6717   17.5757   14.9778 C.3    26  UNL26       0.0000
   1955 N          13.2257   17.5273   11.7190 N.pl3  26  UNL26       0.0000
   1956 H          10.7282   17.0285   15.0846 H      26  UNL26       0.0000
   1957 H          15.7562   18.2591    9.5183 H      26  UNL26       0.0000
   1958 C          13.2515   17.3200   13.0488 C.3    26  UNL26       0.0000
   1959 C          14.3302   17.2413   10.7740 C.3    26  UNL26       0.0000
   1960 H          13.8998   16.6013    9.9943 H      26  UNL26       0.0000
   1961 H          12.4506   17.0341   15.5265 H      26  UNL26       0.0000
   1962 H          14.0972   16.9521   13.6182 H      26  UNL26       0.0000
   1963 H          15.0645   16.6380   11.3220 H      26  UNL26       0.0000
   1964 TI          2.0415    9.9687   24.9888 Ti      1  UNL1        0.0000
   1965 TI         13.1194   13.0314   15.3781 Ti      1  UNL1        0.0000
   1966 TI          6.5864    6.6539   23.0929 Ti      1  UNL1        0.0000
   1967 TI          8.5272   16.3452   17.2697 Ti      1  UNL1        0.0000
   1968 TI          6.8546   17.2336   15.3026 Ti      1  UNL1        0.0000
   1969 TI          8.0576    5.4892   25.0621 Ti      1  UNL1        0.0000
   1970 TI          3.4887    8.6683   23.0897 Ti      1  UNL1        0.0000
   1971 TI         11.4036   14.0751   17.2268 Ti      1  UNL1        0.0000
   1972 H           8.6893    9.3367   20.6128 H       1  UNL1        0.0000
   1973 H           5.0037    3.6668   20.8985 H       1  UNL1        0.0000
   1974 H          10.1531   19.1310   19.4997 H       1  UNL1        0.0000
   1975 H           2.0539   13.9889   24.8206 H       1  UNL1        0.0000
   1976 H          12.9456    8.9013   15.6877 H       1  UNL1        0.0000
   1977 H          -1.7115    8.3562   24.6398 H       1  UNL1        0.0000
   1978 H          16.7920   14.5092   15.5668 H       1  UNL1        0.0000
   1979 H           8.2889    1.3330   24.7576 H       1  UNL1        0.0000
   1980 H           2.9510   15.8497   15.5688 H       1  UNL1        0.0000
   1981 H           9.8285   11.2942   19.5272 H       1  UNL1        0.0000
   1982 H           5.0753   11.6384   20.9132 H       1  UNL1        0.0000
   1983 H           1.3373    5.8995   20.7095 H       1  UNL1        0.0000
   1984 H           7.7203   15.8100   13.3818 H       1  UNL1        0.0000
   1985 H          12.0994   14.4956   13.5526 H       1  UNL1        0.0000
   1986 H           5.4609    8.3289   24.6587 H       1  UNL1        0.0000
   1987 H           9.4591   14.5951   15.6738 H       1  UNL1        0.0000
   1988 H           8.6952    5.3088   19.6144 H       1  UNL1        0.0000
   1989 H           6.3561   17.4970   20.7703 H       1  UNL1        0.0000
   1990 H          -0.9872   11.7785   22.5848 H       1  UNL1        0.0000
   1991 H          15.9558   11.0808   17.8589 H       1  UNL1        0.0000
   1992 H           1.4760   10.1294   19.4715 H       1  UNL1        0.0000
   1993 H           3.9263   19.4222   17.7896 H       1  UNL1        0.0000
   1994 H           5.0301   13.8351   19.9994 H       1  UNL1        0.0000
   1995 H           6.4435   14.5993   19.3026 H       1  UNL1        0.0000
   1996 H           6.6898   20.4513   16.0902 H       1  UNL1        0.0000
   1997 H          12.9094    6.8472   16.8873 H       1  UNL1        0.0000
   1998 H          12.4872    7.3488   23.5139 H       1  UNL1        0.0000
   1999 H          11.1360    6.5410   24.2815 H       1  UNL1        0.0000
   2000 H          15.0115   16.6829   19.8614 H       1  UNL1        0.0000
   2001 H          13.6398   15.9513   19.0526 H       1  UNL1        0.0000
   2002 H          13.1389   13.0415   22.1066 H       1  UNL1        0.0000
   2003 H          12.6433   13.3080   20.4433 H       1  UNL1        0.0000
   2004 H          12.0536    2.7228   23.0605 H       1  UNL1        0.0000
   2005 H          10.7178    3.7152   23.6215 H       1  UNL1        0.0000
   2006 C          13.7915   12.5300   18.2234 C.3     1  UNL1        0.0000
   2007 C           1.2086   10.3356   22.1698 C.3     1  UNL1        0.0000
   2008 C           8.9529    5.0704   22.2237 C.3     1  UNL1        0.0000
   2009 C           6.0676   17.7766   18.1376 C.3     1  UNL1        0.0000
   2010 C          14.6240   11.9575   19.2918 C.ar    1  UNL1        0.0000
   2011 C           0.3175   10.9115   21.1255 C.ar    1  UNL1        0.0000
   2012 C           9.8034    4.4144   21.2170 C.ar    1  UNL1        0.0000
   2013 C           5.2217   18.4004   19.1940 C.ar    1  UNL1        0.0000
   2014 C          14.3235   12.1469   20.6804 C.ar    1  UNL1        0.0000
   2015 C           0.6033   10.7093   19.7579 C.ar    1  UNL1        0.0000
   2016 C          10.8898    3.5506   21.5778 C.ar    1  UNL1        0.0000
   2017 C           4.1428   19.2394   18.8384 C.ar    1  UNL1        0.0000
   2018 C           5.5184   18.1488   20.5293 C.ar    1  UNL1        0.0000
   2019 C           9.5281    4.6499   19.8500 C.ar    1  UNL1        0.0000
   2020 C          15.7622   11.2041   18.9220 C.ar    1  UNL1        0.0000
   2021 C          -0.7947   11.6461   21.5219 C.ar    1  UNL1        0.0000
   2022 C           8.1117   12.5748   19.6143 C.ar    1  UNL1        0.0000
   2023 C           6.8107   10.3898   20.8098 C.ar    1  UNL1        0.0000
   2024 C          11.9027   17.8924   19.5199 C.ar    1  UNL1        0.0000
   2025 C           3.2347    4.8721   20.8647 C.ar    1  UNL1        0.0000
   2026 C          13.0580    8.9836   13.5532 C.ar    1  UNL1        0.0000
   2027 C           6.7931   21.3463   13.5963 C.ar    1  UNL1        0.0000
   2028 C          16.7448   14.4131   13.4271 C.ar    1  UNL1        0.0000
   2029 C           3.1523   15.9160   13.4161 C.ar    1  UNL1        0.0000
   2030 C           8.8342   13.6540   18.9200 C.3     1  UNL1        0.0000
   2031 C           6.1137    9.2422   21.4625 C.3     1  UNL1        0.0000
   2032 C          11.2297   16.8536   18.7318 C.3     1  UNL1        0.0000
   2033 C           3.8803    5.9633   21.6460 C.3     1  UNL1        0.0000
   2034 C          13.1116   10.4726   13.5564 C.3     1  UNL1        0.0000
   2035 C           6.7746   19.8785   13.5502 C.3     1  UNL1        0.0000
   2036 C          15.4558   13.7041   13.4519 C.3     1  UNL1        0.0000
   2037 C           4.4506   16.6515   13.4527 C.3     1  UNL1        0.0000
   2038 C           6.7420   12.7025   20.0147 C.ar    1  UNL1        0.0000
   2039 C           8.1670   10.2725   20.4370 C.ar    1  UNL1        0.0000
   2040 C          11.1827   19.0657   19.8433 C.ar    1  UNL1        0.0000
   2041 C           3.9706    3.7320   20.5616 C.ar    1  UNL1        0.0000
   2042 C          12.9677    8.3169   14.7698 C.ar    1  UNL1        0.0000
   2043 C           2.0286   14.5746   25.7365 C.ar    1  UNL1        0.0000
   2044 C          17.3231   14.7908   14.6608 C.ar    1  UNL1        0.0000
   2045 C          -2.2438    8.0774   25.5476 C.ar    1  UNL1        0.0000
   2046 C          13.2650   17.7588   19.9435 C.ar    1  UNL1        0.0000
   2047 C           1.8893    4.9987   20.4574 C.ar    1  UNL1        0.0000
   2048 C           8.7904   11.3558   19.8448 C.ar    1  UNL1        0.0000
   2049 C           6.1172   11.5778   20.6037 C.ar    1  UNL1        0.0000
   2050 C          12.5502    7.2830   25.5654 C.ar    1  UNL1        0.0000
   2051 C           2.5069   15.5618   14.6206 C.ar    1  UNL1        0.0000
   2052 C           8.2242    0.7903   25.6963 C.ar    1  UNL1        0.0000
   2053 C           6.7533   22.0715   14.8315 C.ar    1  UNL1        0.0000
   2054 N           6.0350   13.8679   19.8830 N.pl3   1  UNL1        0.0000
   2055 N           6.6197   21.4659   16.0484 N.pl3   1  UNL1        0.0000
   2056 N          12.0821    6.9143   24.3333 N.pl3   1  UNL1        0.0000
   2057 N          14.0122   16.6376   19.7070 N.pl3   1  UNL1        0.0000
   2058 N          13.2216   12.8194   21.1230 N.pl3   1  UNL1        0.0000
   2059 N          11.2019    3.2338   22.8678 N.pl3   1  UNL1        0.0000
   2060 O          12.7719   13.2523   18.5484 O.3     1  UNL1        0.0000
   2061 O           2.1544    9.5583   21.7982 O.3     1  UNL1        0.0000
   2062 O           9.2262    4.8871   23.4747 O.3     1  UNL1        0.0000
   2063 O           5.7366   17.9448   16.9157 O.3     1  UNL1        0.0000
   2064 O           7.0912   17.0963   18.5169 O.3     1  UNL1        0.0000
   2065 O           7.9780    5.8117   21.8392 O.3     1  UNL1        0.0000
   2066 O          14.1078   12.2999   16.9971 O.3     1  UNL1        0.0000
   2067 O           0.9793   10.6523   23.3927 O.3     1  UNL1        0.0000
   2068 O          11.4365   12.6227   16.1992 O.3     1  UNL1        0.0000
   2069 O           3.6289   10.2125   24.0847 O.3     1  UNL1        0.0000
   2070 O          12.8498   14.6390   16.1323 O.3     1  UNL1        0.0000
   2071 O           2.1404    8.2641   24.2689 O.3     1  UNL1        0.0000
   2072 O           6.5803    5.0809   24.0916 O.3     1  UNL1        0.0000
   2073 O           8.3826   17.8124   16.2283 O.3     1  UNL1        0.0000
   2074 O           7.8168    7.1922   24.3448 O.3     1  UNL1        0.0000
   2075 O           7.2258   15.6446   16.0705 O.3     1  UNL1        0.0000
   2076 O          10.0778   13.4659   18.6300 O.3     1  UNL1        0.0000
   2077 O           4.8542    9.3220   21.6498 O.3     1  UNL1        0.0000
   2078 O          11.8587   15.7940   18.4054 O.3     1  UNL1        0.0000
   2079 O           3.1523    6.9360   22.0336 O.3     1  UNL1        0.0000
   2080 O           8.2380    3.5957   25.7859 O.3     1  UNL1        0.0000
   2081 O           6.6802   19.2112   14.6383 O.3     1  UNL1        0.0000
   2082 O          10.0334    5.9189   25.7036 O.3     1  UNL1        0.0000
   2083 O           4.9874   16.8167   14.6070 O.3     1  UNL1        0.0000
   2084 O          10.0004   17.0496   18.3782 O.3     1  UNL1        0.0000
   2085 O           5.1276    5.8689   21.8972 O.3     1  UNL1        0.0000
   2086 O           8.2117   14.7323   18.6175 O.3     1  UNL1        0.0000
   2087 O           6.8340    8.2401   21.8048 O.3     1  UNL1        0.0000
   2088 O          14.9359   13.4183   14.5964 O.3     1  UNL1        0.0000
   2089 O           0.0989    9.5798   25.7193 O.3     1  UNL1        0.0000
   2090 O          13.1655   11.0733   14.6743 O.3     1  UNL1        0.0000
   2091 O           2.0126   11.8157   25.7667 O.3     1  UNL1        0.0000
   2092 O           9.9110   15.1190   16.3598 O.3     1  UNL1        0.0000
   2093 O           5.0895    7.7537   23.9657 O.3     1  UNL1        0.0000
   2094 O          12.3274   13.5487   13.5452 O.3     1  UNL1        0.0000
   2095 O           7.5510   16.7665   13.4604 O.3     1  UNL1        0.0000
   2096 H           5.3451   10.9028   26.0268 H      27  UNL27       0.0000
   2097 H           6.8542   10.7629   23.7101 H      27  UNL27       0.0000
   2098 C           6.3722   10.5883   25.8799 C.2    27  UNL27       0.0000
   2099 H           9.3508   11.6240   23.0078 H      27  UNL27       0.0000
   2100 C           7.1170   10.5160   24.7308 C.2    27  UNL27       0.0000
   2101 H           6.6946   11.1092   28.7366 H      27  UNL27       0.0000
   2102 N           7.1878   10.1605   26.9183 N.pl3  27  UNL27       0.0000
   2103 C          10.0871   11.0389   23.5736 C.3    27  UNL27       0.0000
   2104 H          10.5019   11.6655   24.3731 H      27  UNL27       0.0000
   2105 C           6.8162   10.0959   28.3388 C.3    27  UNL27       0.0000
   2106 N           8.3701   10.0476   25.0800 N.pl3  27  UNL27       0.0000
   2107 H           5.8727    9.5488   28.4456 H      27  UNL27       0.0000
   2108 H          10.9007   10.7794   22.8793 H      27  UNL27       0.0000
   2109 C           8.3960    9.8402   26.4098 C.3    27  UNL27       0.0000
   2110 C           9.4747    9.7616   24.1350 C.3    27  UNL27       0.0000
   2111 H           9.0442    9.1216   23.3553 H      27  UNL27       0.0000
   2112 H           7.5951    9.5544   28.8875 H      27  UNL27       0.0000
   2113 H           9.2417    9.4724   26.9792 H      27  UNL27       0.0000
   2114 H          10.2090    9.1583   24.6830 H      27  UNL27       0.0000
   2115 TI         -2.8140    2.4889   38.3498 Ti      1  UNL1        0.0000
   2116 TI          8.2639    5.5517   28.7391 Ti      1  UNL1        0.0000
   2117 TI          1.7308   -0.8259   36.4539 Ti      1  UNL1        0.0000
   2118 TI          3.6717    8.8654   30.6307 Ti      1  UNL1        0.0000
   2119 TI          1.9991    9.7539   28.6636 Ti      1  UNL1        0.0000
   2120 TI          3.2021   -1.9906   38.4231 Ti      1  UNL1        0.0000
   2121 TI         -1.3669    1.1886   36.4507 Ti      1  UNL1        0.0000
   2122 TI          6.5481    6.5954   30.5878 Ti      1  UNL1        0.0000
   2123 H           3.8337    1.8569   33.9738 H       1  UNL1        0.0000
   2124 H           0.1481   -3.8129   34.2595 H       1  UNL1        0.0000
   2125 H           5.2976   11.6513   32.8607 H       1  UNL1        0.0000
   2126 H          -2.8016    6.5092   38.1816 H      14  UNL14       0.0000
   2127 H           8.0900    1.4216   29.0487 H       1  UNL1        0.0000
   2128 H          -6.5670    0.8765   38.0008 H       7  UNL7        0.0000
   2129 H          11.9364    7.0295   28.9278 H       1  UNL1        0.0000
   2130 H           3.4334   -6.1468   38.1186 H      11  UNL11       0.0000
   2131 H          -1.9045    8.3700   28.9298 H       1  UNL1        0.0000
   2132 H           4.9730    3.8145   32.8882 H       1  UNL1        0.0000
   2133 H           0.2198    4.1586   34.2742 H       1  UNL1        0.0000
   2134 H          -3.5182   -1.5802   34.0705 H       1  UNL1        0.0000
   2135 H           2.8648    8.3302   26.7428 H       1  UNL1        0.0000
   2136 H           7.2439    7.0159   26.9136 H       1  UNL1        0.0000
   2137 H           0.6054    0.8491   38.0197 H       1  UNL1        0.0000
   2138 H           4.6036    7.1153   29.0348 H       1  UNL1        0.0000
   2139 H           3.8396   -2.1709   32.9754 H       1  UNL1        0.0000
   2140 H           1.5006   10.0173   34.1313 H       1  UNL1        0.0000
   2141 H          -5.8427    4.2988   35.9458 H       1  UNL1        0.0000
   2142 H          11.1002    3.6011   31.2199 H       1  UNL1        0.0000
   2143 H          -3.3795    2.6496   32.8325 H       1  UNL1        0.0000
   2144 H          -0.9292   11.9424   31.1506 H       1  UNL1        0.0000
   2145 H           0.1746    6.3554   33.3604 H       1  UNL1        0.0000
   2146 H           1.5879    7.1195   32.6636 H       1  UNL1        0.0000
   2147 H           1.8343   12.9715   29.4512 H       1  UNL1        0.0000
   2148 H           8.0539   -0.6325   30.2483 H       1  UNL1        0.0000
   2149 H           7.6317   -0.1309   36.8749 H      15  UNL15       0.0000
   2150 H           6.2805   -0.9388   37.6425 H      15  UNL15       0.0000
   2151 H          10.1560    9.2032   33.2224 H       1  UNL1        0.0000
   2152 H           8.7843    8.4716   32.4136 H       1  UNL1        0.0000
   2153 H           8.2834    5.5617   35.4676 H       1  UNL1        0.0000
   2154 H           7.7878    5.8283   33.8043 H       1  UNL1        0.0000
   2155 H           7.1981   -4.7569   36.4215 H       1  UNL1        0.0000
   2156 H           5.8622   -3.7645   36.9825 H       1  UNL1        0.0000
   2157 C           8.9359    5.0502   31.5844 C.3     1  UNL1        0.0000
   2158 C          -3.6469    2.8559   35.5308 C.3     1  UNL1        0.0000
   2159 C           4.0974   -2.4093   35.5847 C.3     1  UNL1        0.0000
   2160 C           1.2120   10.2968   31.4986 C.3     1  UNL1        0.0000
   2161 C           9.7685    4.4778   32.6527 C.ar    1  UNL1        0.0000
   2162 C          -4.5380    3.4317   34.4865 C.ar    1  UNL1        0.0000
   2163 C           4.9479   -3.0653   34.5780 C.ar    1  UNL1        0.0000
   2164 C           0.3662   10.9206   32.5550 C.ar    1  UNL1        0.0000
   2165 C           9.4680    4.6672   34.0414 C.ar    1  UNL1        0.0000
   2166 C          -4.2523    3.2295   33.1189 C.ar    1  UNL1        0.0000
   2167 C           6.0343   -3.9292   34.9388 C.ar    1  UNL1        0.0000
   2168 C          -0.7127   11.7597   32.1994 C.ar    1  UNL1        0.0000
   2169 C           0.6629   10.6690   33.8903 C.ar    1  UNL1        0.0000
   2170 C           4.6725   -2.8299   33.2110 C.ar    1  UNL1        0.0000
   2171 C          10.9067    3.7244   32.2830 C.ar    1  UNL1        0.0000
   2172 C          -5.6502    4.1663   34.8829 C.ar    1  UNL1        0.0000
   2173 C           3.2562    5.0950   32.9753 C.ar    1  UNL1        0.0000
   2174 C           1.9551    2.9101   34.1708 C.ar    1  UNL1        0.0000
   2175 C           7.0472   10.4127   32.8809 C.ar    1  UNL1        0.0000
   2176 C          -1.6208   -2.6076   34.2257 C.ar    1  UNL1        0.0000
   2177 C           8.2025    1.5039   26.9142 C.ar    1  UNL1        0.0000
   2178 C           1.9375   13.8665   26.9573 C.ar    1  UNL1        0.0000
   2179 C          11.8893    6.9334   26.7881 C.ar    1  UNL1        0.0000
   2180 C          -1.7032    8.4363   26.7771 C.ar    1  UNL1        0.0000
   2181 C           3.9787    6.1743   32.2810 C.3     1  UNL1        0.0000
   2182 C           1.2582    1.7624   34.8235 C.3     1  UNL1        0.0000
   2183 C           6.3741    9.3738   32.0928 C.3     1  UNL1        0.0000
   2184 C          -0.9752   -1.5164   35.0070 C.3     1  UNL1        0.0000
   2185 C           8.2561    2.9929   26.9174 C.3     1  UNL1        0.0000
   2186 C           1.9191   12.3987   26.9112 C.3     1  UNL1        0.0000
   2187 C          10.6003    6.2243   26.8129 C.3     1  UNL1        0.0000
   2188 C          -0.4050    9.1718   26.8137 C.3     1  UNL1        0.0000
   2189 C           1.8864    5.2228   33.3757 C.ar    1  UNL1        0.0000
   2190 C           3.3115    2.7927   33.7980 C.ar    1  UNL1        0.0000
   2191 C           6.3271   11.5859   33.2043 C.ar    1  UNL1        0.0000
   2192 C          -0.8849   -3.7478   33.9226 C.ar    1  UNL1        0.0000
   2193 C           8.1122    0.8372   28.1308 C.ar    1  UNL1        0.0000
   2194 C          -2.8269    7.0949   39.0975 C.2    14  UNL14       0.0000
   2195 C          12.4675    7.3111   28.0218 C.ar    1  UNL1        0.0000
   2196 C          -7.0993    0.5976   38.9086 C.2     7  UNL7        0.0000
   2197 C           8.4094   10.2791   33.3045 C.ar    1  UNL1        0.0000
   2198 C          -2.9663   -2.4811   33.8184 C.ar    1  UNL1        0.0000
   2199 C           3.9349    3.8761   33.2058 C.ar    1  UNL1        0.0000
   2200 C           1.2617    4.0981   33.9647 C.ar    1  UNL1        0.0000
   2201 C           7.6947   -0.1968   38.9264 C.2    15  UNL15       0.0000
   2202 C          -2.3487    8.0821   27.9816 C.ar    1  UNL1        0.0000
   2203 C           3.3687   -6.6895   39.0573 C.2    11  UNL11       0.0000
   2204 C           1.8977   14.5918   28.1925 C.ar    1  UNL1        0.0000
   2205 N           1.1795    6.3882   33.2440 N.pl3   1  UNL1        0.0000
   2206 N           1.7642   13.9861   29.4094 N.pl3   1  UNL1        0.0000
   2207 N           7.2266   -0.5655   37.6943 N.pl3  15  UNL15       0.0000
   2208 N           9.1566    9.1578   33.0680 N.pl3   1  UNL1        0.0000
   2209 N           8.3660    5.3397   34.4840 N.pl3   1  UNL1        0.0000
   2210 N           6.3463   -4.2459   36.2288 N.pl3   1  UNL1        0.0000
   2211 O           7.9164    5.7725   31.9093 O.3     1  UNL1        0.0000
   2212 O          -2.7011    2.0786   35.1592 O.3     1  UNL1        0.0000
   2213 O           4.3707   -2.5926   36.8357 O.3     1  UNL1        0.0000
   2214 O           0.8810   10.4650   30.2767 O.3     1  UNL1        0.0000
   2215 O           2.2357    9.6166   31.8779 O.3     1  UNL1        0.0000
   2216 O           3.1225   -1.6680   35.2002 O.3     1  UNL1        0.0000
   2217 O           9.2523    4.8202   30.3581 O.3     1  UNL1        0.0000
   2218 O          -3.8763    3.1725   36.7537 O.3     1  UNL1        0.0000
   2219 O           6.5810    5.1430   29.5602 O.3     1  UNL1        0.0000
   2220 O          -1.2266    2.7327   37.4457 O.3     1  UNL1        0.0000
   2221 O           7.9943    7.1593   29.4933 O.3     1  UNL1        0.0000
   2222 O          -2.7151    0.7844   37.6299 O.3     1  UNL1        0.0000
   2223 O           1.7247   -2.3988   37.4526 O.3     1  UNL1        0.0000
   2224 O           3.5271   10.3326   29.5893 O.3     1  UNL1        0.0000
   2225 O           2.9613   -0.2876   37.7058 O.3     1  UNL1        0.0000
   2226 O           2.3703    8.1649   29.4315 O.3     1  UNL1        0.0000
   2227 O           5.2223    5.9862   31.9910 O.3     1  UNL1        0.0000
   2228 O          -0.0014    1.8423   35.0108 O.3     1  UNL1        0.0000
   2229 O           7.0031    8.3143   31.7664 O.3     1  UNL1        0.0000
   2230 O          -1.7032   -0.5438   35.3946 O.3     1  UNL1        0.0000
   2231 O           3.3824   -3.8841   39.1469 O.3     1  UNL1        0.0000
   2232 O           1.8247   11.7315   27.9993 O.3     1  UNL1        0.0000
   2233 O           5.1778   -1.5609   39.0646 O.3     1  UNL1        0.0000
   2234 O           0.1318    9.3370   27.9680 O.3     1  UNL1        0.0000
   2235 O           5.1448    9.5699   31.7392 O.3     1  UNL1        0.0000
   2236 O           0.2721   -1.6109   35.2582 O.3     1  UNL1        0.0000
   2237 O           3.3562    7.2526   31.9785 O.3     1  UNL1        0.0000
   2238 O           1.9784    0.7603   35.1658 O.3     1  UNL1        0.0000
   2239 O          10.0804    5.9385   27.9574 O.3     1  UNL1        0.0000
   2240 O          -4.7566    2.1001   39.0803 O.3     1  UNL1        0.0000
   2241 O           8.3100    3.5935   28.0353 O.3     1  UNL1        0.0000
   2242 O          -2.8429    4.3360   39.1277 O.3     1  UNL1        0.0000
   2243 O           5.0555    7.6392   29.7208 O.3     1  UNL1        0.0000
   2244 O           0.2340    0.2740   37.3267 O.3     1  UNL1        0.0000
   2245 O           7.4719    6.0689   26.9062 O.3     1  UNL1        0.0000
   2246 O           2.6955    9.2867   26.8214 O.3     1  UNL1        0.0000
   2247 H           0.4896    3.4230   39.3878 H      28  UNL28       0.0000
   2248 H           1.9987    3.2831   37.0711 H      28  UNL28       0.0000
   2249 C           1.5166    3.1086   39.2409 C.2    28  UNL28       0.0000
   2250 H           4.4953    4.1442   36.3688 H      28  UNL28       0.0000
   2251 C           2.2615    3.0362   38.0918 C.2    28  UNL28       0.0000
   2252 H           1.8391    3.6294   42.0976 H      28  UNL28       0.0000
   2253 N           2.3323    2.6808   40.2793 N.pl3  28  UNL28       0.0000
   2254 C           5.2316    3.5591   36.9346 C.3    28  UNL28       0.0000
   2255 H           5.6464    4.1858   37.7341 H      28  UNL28       0.0000
   2256 C           1.9607    2.6162   41.6998 C.3    28  UNL28       0.0000
   2257 N           3.5146    2.5678   38.4410 N.pl3  28  UNL28       0.0000
   2258 H           1.0171    2.0690   41.8066 H      28  UNL28       0.0000
   2259 H           6.0452    3.2997   36.2403 H      28  UNL28       0.0000
   2260 C           3.5405    2.3605   39.7708 C.3    28  UNL28       0.0000
   2261 C           4.6192    2.2819   37.4960 C.3    28  UNL28       0.0000
   2262 H           4.1887    1.6418   36.7163 H      28  UNL28       0.0000
   2263 H           2.7396    2.0746   42.2485 H      28  UNL28       0.0000
   2264 H           4.3862    1.9926   40.3402 H      28  UNL28       0.0000
   2265 H           5.3535    1.6785   38.0440 H      28  UNL28       0.0000
   2266 TI          0.7601   32.6139   11.6264 Ti      1  UNL1        0.0000
   2267 TI         11.8381   35.6766    2.0157 Ti      1  UNL1        0.0000
   2268 TI          5.3050   29.2991    9.7305 Ti      1  UNL1        0.0000
   2269 TI          7.2459   38.9904    3.9073 Ti      1  UNL1        0.0000
   2270 TI          5.5733   39.8788    1.9402 Ti      1  UNL1        0.0000
   2271 TI          6.7763   28.1344   11.6997 Ti      1  UNL1        0.0000
   2272 TI          2.2073   31.3135    9.7273 Ti      1  UNL1        0.0000
   2273 TI         10.1223   36.7203    3.8644 Ti      1  UNL1        0.0000
   2274 H           7.4079   31.9819    7.2504 H       1  UNL1        0.0000
   2275 H           3.7223   26.3120    7.5361 H       1  UNL1        0.0000
   2276 H           8.8718   41.7762    6.1373 H       1  UNL1        0.0000
   2277 H           0.7726   36.6341   11.4582 H       1  UNL1        0.0000
   2278 H          11.6642   31.5465    2.3253 H       1  UNL1        0.0000
   2279 H          -2.9928   31.0014   11.2774 H       1  UNL1        0.0000
   2280 H          15.5106   37.1544    2.2044 H       1  UNL1        0.0000
   2281 H           7.0076   23.9782   11.3952 H       1  UNL1        0.0000
   2282 H           1.6697   38.4949    2.2064 H       1  UNL1        0.0000
   2283 H           8.5472   33.9394    6.1648 H       1  UNL1        0.0000
   2284 H           3.7940   34.2836    7.5507 H       1  UNL1        0.0000
   2285 H           0.0560   28.5447    7.3471 H       1  UNL1        0.0000
   2286 H           6.4390   38.4552    0.0194 H       1  UNL1        0.0000
   2287 H          10.8181   37.1408    0.1902 H       1  UNL1        0.0000
   2288 H           4.1796   30.9741   11.2963 H       1  UNL1        0.0000
   2289 H           8.1778   37.2403    2.3114 H       1  UNL1        0.0000
   2290 H           7.4138   27.9540    6.2520 H       1  UNL1        0.0000
   2291 H           5.0747   40.1422    7.4079 H       1  UNL1        0.0000
   2292 H          -2.2685   34.4237    9.2224 H       1  UNL1        0.0000
   2293 H          14.6744   33.7260    4.4965 H       1  UNL1        0.0000
   2294 H           0.1947   32.7746    6.1091 H       1  UNL1        0.0000
   2295 H           2.6450   42.0674    4.4272 H       1  UNL1        0.0000
   2296 H           3.7488   36.4803    6.6370 H       1  UNL1        0.0000
   2297 H           5.1621   37.2445    5.9402 H       1  UNL1        0.0000
   2298 H           5.4085   43.0965    2.7278 H       1  UNL1        0.0000
   2299 H          11.6281   29.4924    3.5249 H       1  UNL1        0.0000
   2300 H          11.2059   29.9940   10.1515 H       1  UNL1        0.0000
   2301 H           9.8547   29.1862   10.9191 H       1  UNL1        0.0000
   2302 H          13.7302   39.3281    6.4990 H       1  UNL1        0.0000
   2303 H          12.3585   38.5965    5.6902 H       1  UNL1        0.0000
   2304 H          11.8576   35.6867    8.7442 H       1  UNL1        0.0000
   2305 H          11.3620   35.9532    7.0809 H       1  UNL1        0.0000
   2306 H          10.7723   25.3680    9.6981 H       1  UNL1        0.0000
   2307 H           9.4364   26.3604   10.2591 H       1  UNL1        0.0000
   2308 C          12.5101   35.1752    4.8610 C.3     1  UNL1        0.0000
   2309 C          -0.0727   32.9808    8.8074 C.3     1  UNL1        0.0000
   2310 C           7.6716   27.7156    8.8613 C.3     1  UNL1        0.0000
   2311 C           4.7862   40.4218    4.7752 C.2     1  UNL1        0.0000
   2312 C          13.3427   34.6027    5.9293 C.ar    1  UNL1        0.0000
   2313 C          -0.9638   33.5567    7.7630 C.ar    1  UNL1        0.0000
   2314 C           8.5221   27.0596    7.8546 C.ar    1  UNL1        0.0000
   2315 C           3.9403   41.0456    5.8316 C.2     1  UNL1        0.0000
   2316 C          13.0422   34.7921    7.3180 C.ar    1  UNL1        0.0000
   2317 C          -0.6781   33.3545    6.3955 C.ar    1  UNL1        0.0000
   2318 C           9.6085   26.1958    8.2154 C.ar    1  UNL1        0.0000
   2319 C           2.8615   41.8846    5.4760 C.3     1  UNL1        0.0000
   2320 C           4.2371   40.7940    7.1669 C.3     1  UNL1        0.0000
   2321 C           8.2467   27.2951    6.4876 C.ar    1  UNL1        0.0000
   2322 C          14.4809   33.8493    5.5596 C.ar    1  UNL1        0.0000
   2323 C          -2.0760   34.2913    8.1594 C.ar    1  UNL1        0.0000
   2324 C           6.8304   35.2200    6.2519 C.ar    1  UNL1        0.0000
   2325 C           5.5293   33.0350    7.4474 C.ar    1  UNL1        0.0000
   2326 C          10.6214   40.5376    6.1575 C.2     1  UNL1        0.0000
   2327 C           1.9533   27.5173    7.5023 C.ar    1  UNL1        0.0000
   2328 C          11.7767   31.6288    0.1908 C.2     1  UNL1        0.0000
   2329 C           5.5117   43.9915    0.2338 C.2     1  UNL1        0.0000
   2330 C          15.4635   37.0583    0.0647 C.2     1  UNL1        0.0000
   2331 C           1.8710   38.5612    0.0537 C.2     1  UNL1        0.0000
   2332 C           7.5529   36.2992    5.5576 C.3     1  UNL1        0.0000
   2333 C           4.8324   31.8874    8.1001 C.3     1  UNL1        0.0000
   2334 C           9.9483   39.4988    5.3694 C.2     1  UNL1        0.0000
   2335 C           2.5990   28.6085    8.2836 C.3     1  UNL1        0.0000
   2336 C          11.8303   33.1178    0.1940 C.2     1  UNL1        0.0000
   2337 C           5.4933   42.5237    0.1878 C.2     1  UNL1        0.0000
   2338 C          14.1745   36.3493    0.0895 C.2     1  UNL1        0.0000
   2339 C           3.1692   39.2967    0.0903 C.2     1  UNL1        0.0000
   2340 C           5.4606   35.3477    6.6523 C.ar    1  UNL1        0.0000
   2341 C           6.8857   32.9177    7.0745 C.ar    1  UNL1        0.0000
   2342 C           9.9013   41.7109    6.4809 C.3     1  UNL1        0.0000
   2343 C           2.6893   26.3772    7.1992 C.ar    1  UNL1        0.0000
   2344 C          11.6864   30.9621    1.4074 C.2     1  UNL1        0.0000
   2345 C           0.7473   37.2198   12.3740 C.3     1  UNL1        0.0000
   2346 C          16.0417   37.4360    1.2984 C.2     1  UNL1        0.0000
   2347 C          -3.5251   30.7226   12.1852 C.ar    1  UNL1        0.0000
   2348 C          11.9836   40.4040    6.5811 C.3     1  UNL1        0.0000
   2349 C           0.6079   27.6439    7.0949 C.ar    1  UNL1        0.0000
   2350 C           7.5090   34.0010    6.4824 C.ar    1  UNL1        0.0000
   2351 C           4.8359   34.2230    7.2413 C.ar    1  UNL1        0.0000
   2352 C          11.2689   29.9282   12.2030 C.ar    1  UNL1        0.0000
   2353 C           1.2255   38.2070    1.2582 C.2     1  UNL1        0.0000
   2354 C           6.9429   23.4355   12.3339 C.ar    1  UNL1        0.0000
   2355 C           5.4719   44.7167    1.4691 C.2     1  UNL1        0.0000
   2356 N           4.7537   36.5131    6.5206 N.pl3   1  UNL1        0.0000
   2357 N           5.3384   44.1111    2.6860 N.2     1  UNL1        0.0000
   2358 N          10.8008   29.5595   10.9709 N.pl3   1  UNL1        0.0000
   2359 N          12.7308   39.2828    6.3446 N.3     1  UNL1        0.0000
   2360 N          11.9402   35.4646    7.7606 N.pl3   1  UNL1        0.0000
   2361 N           9.9205   25.8790    9.5054 N.pl3   1  UNL1        0.0000
   2362 O          11.4906   35.8975    5.1859 O.3     1  UNL1        0.0000
   2363 O           0.8731   32.2035    8.4358 O.3     1  UNL1        0.0000
   2364 O           7.9449   27.5323   10.1123 O.3     1  UNL1        0.0000
   2365 O           4.4552   40.5900    3.5533 O.2     1  UNL1        0.0000
   2366 O           5.8099   39.7415    5.1545 O.2     1  UNL1        0.0000
   2367 O           6.6967   28.4569    8.4768 O.3     1  UNL1        0.0000
   2368 O          12.8265   34.9451    3.6347 O.3     1  UNL1        0.0000
   2369 O          -0.3021   33.2975   10.0303 O.3     1  UNL1        0.0000
   2370 O          10.1552   35.2679    2.8368 O.3     1  UNL1        0.0000
   2371 O           2.3476   32.8577   10.7223 O.3     1  UNL1        0.0000
   2372 O          11.5684   37.2842    2.7699 O.3     1  UNL1        0.0000
   2373 O           0.8591   30.9093   10.9065 O.3     1  UNL1        0.0000
   2374 O           5.2989   27.7261   10.7292 O.3     1  UNL1        0.0000
   2375 O           7.1013   40.4576    2.8659 O.3     1  UNL1        0.0000
   2376 O           6.5355   29.8374   10.9824 O.3     1  UNL1        0.0000
   2377 O           5.9445   38.2898    2.7081 O.3     1  UNL1        0.0000
   2378 O           8.7965   36.1111    5.2676 O.3     1  UNL1        0.0000
   2379 O           3.5728   31.9672    8.2874 O.3     1  UNL1        0.0000
   2380 O          10.5773   38.4392    5.0430 O.2     1  UNL1        0.0000
   2381 O           1.8710   29.5812    8.6712 O.3     1  UNL1        0.0000
   2382 O           6.9566   26.2409   12.4235 O.3     1  UNL1        0.0000
   2383 O           5.3989   41.8564    1.2759 O.2     1  UNL1        0.0000
   2384 O           8.7520   28.5641   12.3412 O.3     1  UNL1        0.0000
   2385 O           3.7060   39.4620    1.2446 O.2     1  UNL1        0.0000
   2386 O           8.7190   39.6948    5.0158 O.2     1  UNL1        0.0000
   2387 O           3.8463   28.5141    8.5348 O.3     1  UNL1        0.0000
   2388 O           6.9304   37.3775    5.2551 O.3     1  UNL1        0.0000
   2389 O           5.5526   30.8853    8.4424 O.3     1  UNL1        0.0000
   2390 O          13.6546   36.0635    1.2340 O.2     1  UNL1        0.0000
   2391 O          -1.1824   32.2250   12.3569 O.3     1  UNL1        0.0000
   2392 O          11.8842   33.7185    1.3119 O.2     1  UNL1        0.0000
   2393 O           0.7313   34.4609   12.4043 O.2     1  UNL1        0.0000
   2394 O           8.6297   37.7642    2.9974 O.3     1  UNL1        0.0000
   2395 O           3.8082   30.3989   10.6033 O.3     1  UNL1        0.0000
   2396 O          11.0461   36.1939    0.1828 O.3     1  UNL1        0.0000
   2397 O           6.2697   39.4117    0.0980 O.3     1  UNL1        0.0000
   2398 H           4.0638   33.5480   12.6644 H      29  UNL29       0.0000
   2399 H           5.5729   33.4081   10.3477 H      29  UNL29       0.0000
   2400 C           5.0908   33.2335   12.5175 C.2    29  UNL29       0.0000
   2401 H           8.0695   34.2692    9.6454 H      29  UNL29       0.0000
   2402 C           5.8357   33.1612   11.3684 C.2    29  UNL29       0.0000
   2403 H           5.4133   33.7544   15.3742 H      29  UNL29       0.0000
   2404 N           5.9065   32.8057   13.5559 N.pl3  29  UNL29       0.0000
   2405 C           8.8058   33.6841   10.2112 C.3    29  UNL29       0.0000
   2406 H           9.2206   34.3107   11.0107 H      29  UNL29       0.0000
   2407 C           5.5349   32.7411   14.9764 C.3    29  UNL29       0.0000
   2408 N           7.0888   32.6928   11.7176 N.pl3  29  UNL29       0.0000
   2409 H           4.5913   32.1940   15.0832 H      29  UNL29       0.0000
   2410 H           9.6194   33.4246    9.5169 H      29  UNL29       0.0000
   2411 C           7.1147   32.4854   13.0474 C.3    29  UNL29       0.0000
   2412 C           8.1934   32.4068   10.7726 C.3    29  UNL29       0.0000
   2413 H           7.7629   31.7668    9.9929 H      29  UNL29       0.0000
   2414 H           6.3138   32.1996   15.5251 H      29  UNL29       0.0000
   2415 H           7.9604   32.1176   13.6168 H      29  UNL29       0.0000
   2416 H           8.9277   31.8035   11.3206 H      29  UNL29       0.0000
   2417 TI         -4.0954   25.1341   24.9874 Ti      1  UNL1        0.0000
   2418 TI          6.9826   28.1969   15.3767 Ti      1  UNL1        0.0000
   2419 TI          0.4495   21.8193   23.0915 Ti      1  UNL1        0.0000
   2420 TI          2.3904   31.5106   17.2683 Ti      1  UNL1        0.0000
   2421 TI          0.7178   32.3991   15.3012 Ti      1  UNL1        0.0000
   2422 TI          1.9207   20.6546   25.0607 Ti      1  UNL1        0.0000
   2423 TI         -2.6482   23.8338   23.0883 Ti      1  UNL1        0.0000
   2424 TI          5.2668   29.2406   17.2254 Ti      1  UNL1        0.0000
   2425 H           2.5524   24.5021   20.6114 H       1  UNL1        0.0000
   2426 H          -1.1332   18.8323   20.8971 H       1  UNL1        0.0000
   2427 H           4.0163   34.2965   19.4983 H       1  UNL1        0.0000
   2428 H          -4.0829   29.1544   24.8192 H       1  UNL1        0.0000
   2429 H           6.8087   24.0668   15.6863 H       1  UNL1        0.0000
   2430 H          -7.8483   23.5217   24.6384 H       1  UNL1        0.0000
   2431 H          10.6551   29.6747   15.5654 H       1  UNL1        0.0000
   2432 H           2.1521   16.4984   24.7562 H       1  UNL1        0.0000
   2433 H          -3.1858   31.0152   15.5674 H       1  UNL1        0.0000
   2434 H           3.6917   26.4597   19.5258 H       1  UNL1        0.0000
   2435 H          -1.0615   26.8038   20.9117 H       1  UNL1        0.0000
   2436 H          -4.7995   21.0650   20.7080 H       1  UNL1        0.0000
   2437 H           1.5834   30.9754   13.3804 H       1  UNL1        0.0000
   2438 H           5.9625   29.6611   13.5512 H       1  UNL1        0.0000
   2439 H          -0.6759   23.4943   24.6573 H       1  UNL1        0.0000
   2440 H           3.3222   29.7605   15.6724 H       1  UNL1        0.0000
   2441 H           2.5583   20.4743   19.6130 H       1  UNL1        0.0000
   2442 H           0.2192   32.6625   20.7689 H       1  UNL1        0.0000
   2443 H          -7.1240   26.9440   22.5834 H       1  UNL1        0.0000
   2444 H           9.8189   26.2463   17.8575 H       1  UNL1        0.0000
   2445 H          -4.6609   25.2948   19.4701 H       1  UNL1        0.0000
   2446 H          -2.2106   34.5876   17.7882 H       1  UNL1        0.0000
   2447 H          -1.1068   29.0006   19.9980 H       1  UNL1        0.0000
   2448 H           0.3066   29.7647   19.3012 H       1  UNL1        0.0000
   2449 H           0.5530   35.6167   16.0888 H       1  UNL1        0.0000
   2450 H           6.7726   22.0127   16.8858 H       1  UNL1        0.0000
   2451 H           6.3504   22.5143   23.5125 H       1  UNL1        0.0000
   2452 H           4.9991   21.7064   24.2801 H       1  UNL1        0.0000
   2453 H           8.8746   31.8484   19.8600 H       1  UNL1        0.0000
   2454 H           7.5030   31.1168   19.0512 H       1  UNL1        0.0000
   2455 H           7.0021   28.2069   22.1052 H       1  UNL1        0.0000
   2456 H           6.5065   28.4735   20.4419 H       1  UNL1        0.0000
   2457 H           5.9167   17.8883   23.0590 H       1  UNL1        0.0000
   2458 H           4.5809   18.8807   23.6201 H       1  UNL1        0.0000
   2459 C           7.6546   27.6954   18.2220 C.3     1  UNL1        0.0000
   2460 C          -4.9283   25.5011   22.1684 C.3     1  UNL1        0.0000
   2461 C           2.8161   20.2359   22.2223 C.3     1  UNL1        0.0000
   2462 C          -0.0693   32.9420   18.1362 C.2     1  UNL1        0.0000
   2463 C           8.4872   27.1230   19.2903 C.ar    1  UNL1        0.0000
   2464 C          -5.8193   26.0769   21.1240 C.ar    1  UNL1        0.0000
   2465 C           3.6665   19.5799   21.2156 C.ar    1  UNL1        0.0000
   2466 C          -0.9152   33.5658   19.1926 C.2     1  UNL1        0.0000
   2467 C           8.1867   27.3124   20.6790 C.ar    1  UNL1        0.0000
   2468 C          -5.5336   25.8747   19.7565 C.ar    1  UNL1        0.0000
   2469 C           4.7529   18.7160   21.5764 C.ar    1  UNL1        0.0000
   2470 C          -1.9941   34.4049   18.8370 C.3     1  UNL1        0.0000
   2471 C          -0.6184   33.3142   20.5279 C.3     1  UNL1        0.0000
   2472 C           3.3912   19.8153   19.8486 C.ar    1  UNL1        0.0000
   2473 C           9.6254   26.3696   18.9206 C.ar    1  UNL1        0.0000
   2474 C          -6.9316   26.8115   21.5204 C.ar    1  UNL1        0.0000
   2475 C           1.9749   27.7402   19.6129 C.ar    1  UNL1        0.0000
   2476 C           0.6738   25.5553   20.8084 C.ar    1  UNL1        0.0000
   2477 C           5.7658   33.0579   19.5185 C.2     1  UNL1        0.0000
   2478 C          -2.9022   20.0376   20.8633 C.ar    1  UNL1        0.0000
   2479 C           6.9212   24.1491   13.5518 C.ar    1  UNL1        0.0000
   2480 C           0.6562   36.5117   13.5948 C.2     1  UNL1        0.0000
   2481 C          10.6080   29.5786   13.4257 C.ar    1  UNL1        0.0000
   2482 C          -2.9845   31.0815   13.4147 C.ar    1  UNL1        0.0000
   2483 C           2.6974   28.8195   18.9186 C.3     1  UNL1        0.0000
   2484 C          -0.0232   24.4076   21.4611 C.3     1  UNL1        0.0000
   2485 C           5.0928   32.0190   18.7304 C.2     1  UNL1        0.0000
   2486 C          -2.2566   21.1288   21.6446 C.3     1  UNL1        0.0000
   2487 C           6.9748   25.6381   13.5550 C.3     1  UNL1        0.0000
   2488 C           0.6378   35.0439   13.5488 C.2     1  UNL1        0.0000
   2489 C           9.3190   28.8695   13.4505 C.3     1  UNL1        0.0000
   2490 C          -1.6863   31.8170   13.4513 C.3     1  UNL1        0.0000
   2491 C           0.6051   27.8680   20.0133 C.ar    1  UNL1        0.0000
   2492 C           2.0301   25.4379   20.4355 C.ar    1  UNL1        0.0000
   2493 C           5.0458   34.2311   19.8419 C.3     1  UNL1        0.0000
   2494 C          -2.1663   18.8974   20.5602 C.ar    1  UNL1        0.0000
   2495 C           6.8309   23.4824   14.7684 C.ar    1  UNL1        0.0000
   2496 C          -4.1082   29.7401   25.7350 C.3     1  UNL1        0.0000
   2497 C          11.1862   29.9563   14.6594 C.ar    1  UNL1        0.0000
   2498 C          -8.3806   23.2428   25.5462 C.ar    1  UNL1        0.0000
   2499 C           7.1281   32.9243   19.9421 C.3     1  UNL1        0.0000
   2500 C          -4.2476   20.1641   20.4559 C.ar    1  UNL1        0.0000
   2501 C           2.6535   26.5213   19.8434 C.ar    1  UNL1        0.0000
   2502 C          -0.0196   26.7433   20.6023 C.ar    1  UNL1        0.0000
   2503 C           6.4134   22.4484   25.5640 C.ar    1  UNL1        0.0000
   2504 C          -3.6300   30.7273   14.6192 C.ar    1  UNL1        0.0000
   2505 C           2.0874   15.9557   25.6949 C.ar    1  UNL1        0.0000
   2506 C           0.6164   37.2370   14.8301 C.2     1  UNL1        0.0000
   2507 N          -0.1018   29.0334   19.8816 N.pl3   1  UNL1        0.0000
   2508 N           0.4828   36.6313   16.0470 N.2     1  UNL1        0.0000
   2509 N           5.9452   22.0797   24.3319 N.pl3   1  UNL1        0.0000
   2510 N           7.8753   31.8030   19.7056 N.3     1  UNL1        0.0000
   2511 N           7.0847   27.9849   21.1216 N.pl3   1  UNL1        0.0000
   2512 N           5.0650   18.3993   22.8664 N.pl3   1  UNL1        0.0000
   2513 O           6.6350   28.4177   18.5469 O.3     1  UNL1        0.0000
   2514 O          -3.9824   24.7238   21.7968 O.3     1  UNL1        0.0000
   2515 O           3.0894   20.0526   23.4733 O.3     1  UNL1        0.0000
   2516 O          -0.4003   33.1102   16.9143 O.2     1  UNL1        0.0000
   2517 O           0.9543   32.2618   18.5155 O.2     1  UNL1        0.0000
   2518 O           1.8412   20.9772   21.8378 O.3     1  UNL1        0.0000
   2519 O           7.9710   27.4654   16.9957 O.3     1  UNL1        0.0000
   2520 O          -5.1576   25.8177   23.3913 O.3     1  UNL1        0.0000
   2521 O           5.2996   27.7882   16.1978 O.3     1  UNL1        0.0000
   2522 O          -2.5079   25.3779   24.0833 O.3     1  UNL1        0.0000
   2523 O           6.7129   29.8045   16.1309 O.3     1  UNL1        0.0000
   2524 O          -3.9964   23.4296   24.2675 O.3     1  UNL1        0.0000
   2525 O           0.4434   20.2464   24.0902 O.3     1  UNL1        0.0000
   2526 O           2.2458   32.9778   16.2269 O.3     1  UNL1        0.0000
   2527 O           1.6800   22.3576   24.3434 O.3     1  UNL1        0.0000
   2528 O           1.0890   30.8101   16.0691 O.3     1  UNL1        0.0000
   2529 O           3.9410   28.6314   18.6286 O.3     1  UNL1        0.0000
   2530 O          -1.2827   24.4875   21.6484 O.3     1  UNL1        0.0000
   2531 O           5.7218   30.9595   18.4039 O.2     1  UNL1        0.0000
   2532 O          -2.9846   22.1014   22.0322 O.3     1  UNL1        0.0000
   2533 O           2.1011   18.7611   25.7845 O.3     1  UNL1        0.0000
   2534 O           0.5433   34.3767   14.6369 O.2     1  UNL1        0.0000
   2535 O           3.8965   21.0843   25.7022 O.3     1  UNL1        0.0000
   2536 O          -1.1495   31.9822   14.6056 O.3     1  UNL1        0.0000
   2537 O           3.8635   32.2151   18.3768 O.2     1  UNL1        0.0000
   2538 O          -1.0092   21.0343   21.8958 O.3     1  UNL1        0.0000
   2539 O           2.0748   29.8978   18.6160 O.3     1  UNL1        0.0000
   2540 O           0.6971   23.4055   21.8034 O.3     1  UNL1        0.0000
   2541 O           8.7990   28.5837   14.5949 O.3     1  UNL1        0.0000
   2542 O          -6.0379   24.7453   25.7179 O.3     1  UNL1        0.0000
   2543 O           7.0286   26.2387   14.6729 O.3     1  UNL1        0.0000
   2544 O          -4.1242   26.9812   25.7653 O.2     1  UNL1        0.0000
   2545 O           3.7741   30.2844   16.3584 O.3     1  UNL1        0.0000
   2546 O          -1.0474   22.9192   23.9643 O.3     1  UNL1        0.0000
   2547 O           6.1906   28.7141   13.5438 O.3     1  UNL1        0.0000
   2548 O           1.4142   31.9319   13.4590 O.3     1  UNL1        0.0000
   2549 H          -0.7918   26.0682   26.0254 H      30  UNL30       0.0000
   2550 H           0.7174   25.9283   23.7087 H      30  UNL30       0.0000
   2551 C           0.2353   25.7538   25.8785 C.2    30  UNL30       0.0000
   2552 H           3.2139   26.7894   23.0064 H      30  UNL30       0.0000
   2553 C           0.9801   25.6814   24.7294 C.2    30  UNL30       0.0000
   2554 H           0.5578   26.2746   28.7352 H      30  UNL30       0.0000
   2555 N           1.0510   25.3260   26.9169 N.pl3  30  UNL30       0.0000
   2556 C           3.9503   26.2043   23.5722 C.3    30  UNL30       0.0000
   2557 H           4.3651   26.8310   24.3717 H      30  UNL30       0.0000
   2558 C           0.6793   25.2614   28.3374 C.3    30  UNL30       0.0000
   2559 N           2.2333   25.2130   25.0786 N.pl3  30  UNL30       0.0000
   2560 H          -0.2642   24.7142   28.4442 H      30  UNL30       0.0000
   2561 H           4.7638   25.9449   22.8779 H      30  UNL30       0.0000
   2562 C           2.2591   25.0057   26.4084 C.3    30  UNL30       0.0000
   2563 C           3.3379   24.9271   24.1336 C.3    30  UNL30       0.0000
   2564 H           2.9074   24.2870   23.3539 H      30  UNL30       0.0000
   2565 H           1.4582   24.7198   28.8861 H      30  UNL30       0.0000
   2566 H           3.1048   24.6378   26.9778 H      30  UNL30       0.0000
   2567 H           4.0722   24.3237   24.6816 H      30  UNL30       0.0000
   2568 TI         -8.9509   17.6544   38.3484 Ti      1  UNL1        0.0000
   2569 TI          2.1271   20.7171   28.7377 Ti      1  UNL1        0.0000
   2570 TI         -4.4060   14.3396   36.4525 Ti      1  UNL1        0.0000
   2571 TI         -2.4652   24.0309   30.6293 Ti      1  UNL1        0.0000
   2572 TI         -4.1378   24.9193   28.6622 Ti      1  UNL1        0.0000
   2573 TI         -2.9348   13.1749   38.4217 Ti      1  UNL1        0.0000
   2574 TI         -7.5037   16.3541   36.4493 Ti      1  UNL1        0.0000
   2575 TI          0.4112   21.7609   30.5864 Ti      1  UNL1        0.0000
   2576 H          -2.3031   17.0224   33.9724 H       1  UNL1        0.0000
   2577 H          -5.9887   11.3525   34.2581 H       1  UNL1        0.0000
   2578 H          -0.8392   26.8167   32.8593 H       1  UNL1        0.0000
   2579 H          -8.9385   21.6746   38.1802 H      16  UNL16       0.0000
   2580 H           1.9532   16.5871   29.0473 H       1  UNL1        0.0000
   2581 H         -12.7039   16.0419   37.9994 H      10  UNL10       0.0000
   2582 H           5.7996   22.1949   28.9264 H       1  UNL1        0.0000
   2583 H          -2.7035    9.0187   38.1172 H      14  UNL14       0.0000
   2584 H          -8.0414   23.5354   28.9284 H       1  UNL1        0.0000
   2585 H          -1.1638   18.9799   32.8868 H       1  UNL1        0.0000
   2586 H          -5.9171   19.3241   34.2727 H       1  UNL1        0.0000
   2587 H          -9.6551   13.5853   34.0690 H       1  UNL1        0.0000
   2588 H          -3.2721   23.4957   26.7414 H       1  UNL1        0.0000
   2589 H           1.1070   22.1813   26.9122 H       1  UNL1        0.0000
   2590 H          -5.5315   16.0146   38.0183 H       1  UNL1        0.0000
   2591 H          -1.5333   22.2808   29.0334 H       1  UNL1        0.0000
   2592 H          -2.2972   12.9946   32.9740 H       1  UNL1        0.0000
   2593 H          -4.6363   25.1827   34.1299 H       1  UNL1        0.0000
   2594 H         -11.9796   19.4642   35.9444 H       1  UNL1        0.0000
   2595 H           4.9634   18.7666   31.2185 H       1  UNL1        0.0000
   2596 H          -9.5164   17.8151   32.8311 H       1  UNL1        0.0000
   2597 H          -7.0661   27.1079   31.1492 H       1  UNL1        0.0000
   2598 H          -5.9623   21.5208   33.3590 H       1  UNL1        0.0000
   2599 H          -4.5489   22.2850   32.6622 H       1  UNL1        0.0000
   2600 H          -4.3026   28.1370   29.4498 H       1  UNL1        0.0000
   2601 H           1.9170   14.5329   30.2468 H       1  UNL1        0.0000
   2602 H           1.4948   15.0345   36.8735 H      17  UNL17       0.0000
   2603 H           0.1436   14.2267   37.6411 H      17  UNL17       0.0000
   2604 H           4.0191   24.3686   33.2210 H       1  UNL1        0.0000
   2605 H           2.6475   23.6370   32.4122 H       1  UNL1        0.0000
   2606 H           2.1465   20.7272   35.4662 H       1  UNL1        0.0000
   2607 H           1.6509   20.9937   33.8029 H       1  UNL1        0.0000
   2608 H           1.0612   10.4085   36.4200 H       1  UNL1        0.0000
   2609 H          -0.2746   11.4010   36.9811 H       1  UNL1        0.0000
   2610 C           2.7991   20.2157   31.5830 C.3     1  UNL1        0.0000
   2611 C          -9.7838   18.0214   35.5294 C.3     1  UNL1        0.0000
   2612 C          -2.0394   12.7562   35.5833 C.3     1  UNL1        0.0000
   2613 C          -4.9248   25.4623   31.4972 C.2     1  UNL1        0.0000
   2614 C           3.6317   19.6433   32.6513 C.ar    1  UNL1        0.0000
   2615 C         -10.6749   18.5972   34.4850 C.ar    1  UNL1        0.0000
   2616 C          -1.1890   12.1001   34.5766 C.ar    1  UNL1        0.0000
   2617 C          -5.7707   26.0861   32.5536 C.2     1  UNL1        0.0000
   2618 C           3.3312   19.8326   34.0400 C.ar    1  UNL1        0.0000
   2619 C         -10.3891   18.3950   33.1175 C.ar    1  UNL1        0.0000
   2620 C          -0.1026   11.2363   34.9374 C.ar    1  UNL1        0.0000
   2621 C          -6.8496   26.9251   32.1980 C.3     1  UNL1        0.0000
   2622 C          -5.4740   25.8345   33.8888 C.3     1  UNL1        0.0000
   2623 C          -1.4643   12.3356   33.2096 C.ar    1  UNL1        0.0000
   2624 C           4.7698   18.8898   32.2816 C.ar    1  UNL1        0.0000
   2625 C         -11.7871   19.3318   34.8814 C.ar    1  UNL1        0.0000
   2626 C          -2.8807   20.2605   32.9739 C.ar    1  UNL1        0.0000
   2627 C          -4.1817   18.0756   34.1694 C.ar    1  UNL1        0.0000
   2628 C           0.9103   25.5781   32.8795 C.2     1  UNL1        0.0000
   2629 C          -7.7577   12.5578   34.2243 C.ar    1  UNL1        0.0000
   2630 C           2.0656   16.6694   26.9128 C.ar    1  UNL1        0.0000
   2631 C          -4.1993   29.0320   26.9558 C.2     1  UNL1        0.0000
   2632 C           5.7524   22.0989   26.7867 C.ar    1  UNL1        0.0000
   2633 C          -7.8400   23.6017   26.7757 C.ar    1  UNL1        0.0000
   2634 C          -2.1582   21.3398   32.2796 C.3     1  UNL1        0.0000
   2635 C          -4.8787   16.9279   34.8221 C.3     1  UNL1        0.0000
   2636 C           0.2373   24.5393   32.0914 C.2     1  UNL1        0.0000
   2637 C          -7.1121   13.6490   35.0056 C.3     1  UNL1        0.0000
   2638 C           2.1193   18.1583   26.9160 C.3     1  UNL1        0.0000
   2639 C          -4.2178   27.5642   26.9098 C.2     1  UNL1        0.0000
   2640 C           4.4634   21.3898   26.8115 C.3     1  UNL1        0.0000
   2641 C          -6.5418   24.3372   26.8122 C.3     1  UNL1        0.0000
   2642 C          -4.2504   20.3883   33.3743 C.ar    1  UNL1        0.0000
   2643 C          -2.8254   17.9582   33.7965 C.ar    1  UNL1        0.0000
   2644 C           0.1903   26.7514   33.2029 C.3     1  UNL1        0.0000
   2645 C          -7.0218   11.4177   33.9212 C.ar    1  UNL1        0.0000
   2646 C           1.9753   16.0026   28.1294 C.ar    1  UNL1        0.0000
   2647 C          -8.9637   22.2603   39.0960 C.3    31  UNL31       0.0000
   2648 C           6.3307   22.4765   28.0204 C.ar    1  UNL1        0.0000
   2649 C         -13.2362   15.7631   38.9072 C.2    10  UNL10       0.0000
   2650 C           2.2726   25.4445   33.3031 C.3     1  UNL1        0.0000
   2651 C          -9.1031   12.6844   33.8169 C.ar    1  UNL1        0.0000
   2652 C          -2.2020   19.0415   33.2044 C.ar    1  UNL1        0.0000
   2653 C          -4.8752   19.2635   33.9633 C.ar    1  UNL1        0.0000
   2654 C           1.5578   14.9687   38.9250 C.2    17  UNL17       0.0000
   2655 C          -8.4855   23.2475   27.9801 C.ar    1  UNL1        0.0000
   2656 C          -2.7681    8.4760   39.0559 C.2    14  UNL14       0.0000
   2657 C          -4.2391   29.7573   28.1911 C.2     1  UNL1        0.0000
   2658 N          -4.9573   21.5536   33.2426 N.pl3   1  UNL1        0.0000
   2659 N          -4.3727   29.1516   29.4080 N.2     1  UNL1        0.0000
   2660 N           1.0897   14.6000   37.6929 N.pl3  17  UNL17       0.0000
   2661 N           3.0198   24.3233   33.0666 N.3     1  UNL1        0.0000
   2662 N           2.2292   20.5052   34.4826 N.pl3   1  UNL1        0.0000
   2663 N           0.2095   10.9195   36.2274 N.pl3   1  UNL1        0.0000
   2664 O           1.7795   20.9380   31.9079 O.3     1  UNL1        0.0000
   2665 O          -8.8379   17.2440   35.1578 O.3     1  UNL1        0.0000
   2666 O          -1.7662   12.5728   36.8343 O.3     1  UNL1        0.0000
   2667 O          -5.2558   25.6305   30.2753 O.2     1  UNL1        0.0000
   2668 O          -3.9012   24.7820   31.8765 O.2     1  UNL1        0.0000
   2669 O          -3.0143   13.4975   35.1988 O.3     1  UNL1        0.0000
   2670 O           3.1154   19.9856   30.3567 O.3     1  UNL1        0.0000
   2671 O         -10.0131   18.3380   36.7523 O.3     1  UNL1        0.0000
   2672 O           0.4441   20.3084   29.5588 O.3     1  UNL1        0.0000
   2673 O          -7.3635   17.8982   37.4443 O.3     1  UNL1        0.0000
   2674 O           1.8574   22.3247   29.4919 O.3     1  UNL1        0.0000
   2675 O          -8.8520   15.9498   37.6285 O.3     1  UNL1        0.0000
   2676 O          -4.4121   12.7666   37.4512 O.3     1  UNL1        0.0000
   2677 O          -2.6097   25.4981   29.5879 O.3     1  UNL1        0.0000
   2678 O          -3.1755   14.8779   37.7044 O.3     1  UNL1        0.0000
   2679 O          -3.7665   23.3304   29.4301 O.3     1  UNL1        0.0000
   2680 O          -0.9146   21.1517   31.9896 O.3     1  UNL1        0.0000
   2681 O          -6.1382   17.0078   35.0094 O.3     1  UNL1        0.0000
   2682 O           0.8663   23.4797   31.7649 O.2     1  UNL1        0.0000
   2683 O          -7.8401   14.6217   35.3932 O.3     1  UNL1        0.0000
   2684 O          -2.7544   11.2814   39.1455 O.3     1  UNL1        0.0000
   2685 O          -4.3122   26.8970   27.9979 O.2     1  UNL1        0.0000
   2686 O          -0.9590   13.6046   39.0632 O.3     1  UNL1        0.0000
   2687 O          -6.0050   24.5025   27.9666 O.3     1  UNL1        0.0000
   2688 O          -0.9920   24.7353   31.7378 O.2     1  UNL1        0.0000
   2689 O          -5.8647   13.5546   35.2568 O.3     1  UNL1        0.0000
   2690 O          -2.7807   22.4180   31.9770 O.3     1  UNL1        0.0000
   2691 O          -4.1584   15.9258   35.1644 O.3     1  UNL1        0.0000
   2692 O           3.9435   21.1040   27.9559 O.3     1  UNL1        0.0000
   2693 O         -10.8935   17.2656   39.0789 O.3     1  UNL1        0.0000
   2694 O           2.1731   18.7590   28.0339 O.3     1  UNL1        0.0000
   2695 O          -8.9798   19.5014   39.1263 O.3     1  UNL1        0.0000
   2696 O          -1.0814   22.8047   29.7194 O.3     1  UNL1        0.0000
   2697 O          -5.9029   15.4395   37.3253 O.3     1  UNL1        0.0000
   2698 O           1.3351   21.2344   26.9048 O.3     1  UNL1        0.0000
   2699 O          -3.4414   24.4522   26.8200 O.3     1  UNL1        0.0000
   2700 H          -5.6473   18.5885   39.3864 H      32  UNL32       0.0000
   2701 H          -4.1382   18.4486   37.0697 H      32  UNL32       0.0000
   2702 C          -4.6202   18.2740   39.2395 C.2    32  UNL32       0.0000
   2703 H          -1.6416   19.3097   36.3674 H      32  UNL32       0.0000
   2704 C          -3.8754   18.2017   38.0904 C.2    32  UNL32       0.0000
   2705 H          -4.2978   18.7949   42.0962 H      32  UNL32       0.0000
   2706 N          -3.8046   17.8462   40.2779 N.pl3  32  UNL32       0.0000
   2707 C          -0.9053   18.7246   36.9332 C.3    32  UNL32       0.0000
   2708 H          -0.4905   19.3513   37.7327 H      32  UNL32       0.0000
   2709 C          -4.1762   17.7816   41.6984 C.3    32  UNL32       0.0000
   2710 N          -2.6222   17.7333   38.4396 N.pl3  32  UNL32       0.0000
   2711 H          -5.1197   17.2345   41.8052 H      32  UNL32       0.0000
   2712 H          -0.0917   18.4651   36.2389 H      32  UNL32       0.0000
   2713 C          -2.5964   17.5259   39.7694 C.3    32  UNL32       0.0000
   2714 C          -1.5177   17.4473   37.4946 C.3    32  UNL32       0.0000
   2715 H          -1.9481   16.8073   36.7149 H      32  UNL32       0.0000
   2716 H          -3.3973   17.2401   42.2471 H      32  UNL32       0.0000
   2717 H          -1.7507   17.1581   40.3388 H      32  UNL32       0.0000
   2718 H          -0.7834   16.8440   38.0426 H      32  UNL32       0.0000
   2719 TI         29.0376    2.2169   11.7349 Ti      1  UNL1        0.0000
   2720 TI         40.1156    5.2796    2.1242 Ti      1  UNL1        0.0000
   2721 TI         33.5825   -1.0979    9.8390 Ti      1  UNL1        0.0000
   2722 TI         35.5234    8.5934    4.0158 Ti      1  UNL1        0.0000
   2723 TI         33.8508    9.4818    2.0487 Ti      1  UNL1        0.0000
   2724 TI         35.0537   -2.2626   11.8082 Ti      1  UNL1        0.0000
   2725 TI         30.4848    0.9166    9.8358 Ti      1  UNL1        0.0000
   2726 TI         38.3998    6.3234    3.9729 Ti      1  UNL1        0.0000
   2727 H          35.6854    1.5849    7.3589 H       1  UNL1        0.0000
   2728 H          31.9998   -4.0850    7.6446 H       1  UNL1        0.0000
   2729 H          37.1493   11.3792    6.2458 H       1  UNL1        0.0000
   2730 H          29.0501    6.2372   11.5667 H       1  UNL1        0.0000
   2731 H          39.9417    1.1496    2.4338 H       1  UNL1        0.0000
   2732 H          25.2847    0.6044   11.3860 H       1  UNL1        0.0000
   2733 H          43.7881    6.7574    2.3130 H       1  UNL1        0.0000
   2734 H          35.2851   -6.4188   11.5037 H       1  UNL1        0.0000
   2735 H          29.9472    8.0979    2.3149 H       1  UNL1        0.0000
   2736 H          36.8247    3.5424    6.2733 H       1  UNL1        0.0000
   2737 H          32.0715    3.8866    7.6593 H       1  UNL1        0.0000
   2738 H          28.3335   -1.8522    7.4556 H       1  UNL1        0.0000
   2739 H          34.7164    8.0582    0.1279 H       1  UNL1        0.0000
   2740 H          39.0956    6.7438    0.2987 H       1  UNL1        0.0000
   2741 H          32.4571    0.5771   11.4048 H       1  UNL1        0.0000
   2742 H          36.4553    6.8433    2.4199 H       1  UNL1        0.0000
   2743 H          35.6913   -2.4429    6.3605 H       1  UNL1        0.0000
   2744 H          33.3522    9.7452    7.5164 H       1  UNL1        0.0000
   2745 H          26.0090    4.0267    9.3309 H       1  UNL1        0.0000
   2746 H          42.9519    3.3291    4.6050 H       1  UNL1        0.0000
   2747 H          28.4722    2.3776    6.2176 H       1  UNL1        0.0000
   2748 H          30.9225   11.6704    4.5357 H       1  UNL1        0.0000
   2749 H          32.0263    6.0834    6.7456 H       1  UNL1        0.0000
   2750 H          33.4396    6.8475    6.0487 H       1  UNL1        0.0000
   2751 H          33.6860   12.6995    2.8364 H       1  UNL1        0.0000
   2752 H          39.9056   -0.9046    3.6334 H      45  UNL45       0.0000
   2753 H          39.4834   -0.4030   10.2600 H       1  UNL1        0.0000
   2754 H          38.1322   -1.2108   11.0276 H       1  UNL1        0.0000
   2755 H          42.0076    8.9311    6.6075 H       1  UNL1        0.0000
   2756 H          40.6360    8.1995    5.7987 H       1  UNL1        0.0000
   2757 H          40.1351    5.2897    8.8527 H       1  UNL1        0.0000
   2758 H          39.6395    5.5562    7.1894 H       1  UNL1        0.0000
   2759 H          39.0497   -5.0289    9.8066 H       1  UNL1        0.0000
   2760 H          37.7139   -4.0365   10.3676 H       1  UNL1        0.0000
   2761 C          40.7876    4.7782    4.9696 C.2     1  UNL1        0.0000
   2762 C          28.2048    2.5839    8.9159 C.3     1  UNL1        0.0000
   2763 C          35.9491   -2.6813    8.9698 C.2     1  UNL1        0.0000
   2764 C          33.0637   10.0248    4.8837 C.3     1  UNL1        0.0000
   2765 C          41.6202    4.2058    6.0379 C.2     1  UNL1        0.0000
   2766 C          27.3137    3.1597    7.8716 C.ar    1  UNL1        0.0000
   2767 C          36.7996   -3.3374    7.9632 C.2     1  UNL1        0.0000
   2768 C          32.2178   10.6486    5.9401 C.ar    1  UNL1        0.0000
   2769 C          41.3197    4.3952    7.4265 C.3     1  UNL1        0.0000
   2770 C          27.5994    2.9575    6.5040 C.ar    1  UNL1        0.0000
   2771 C          37.8860   -4.2012    8.3240 C.3     1  UNL1        0.0000
   2772 C          31.1389   11.4876    5.5845 C.ar    1  UNL1        0.0000
   2773 C          32.5146   10.3970    7.2754 C.ar    1  UNL1        0.0000
   2774 C          36.5242   -3.1019    6.5961 C.3     1  UNL1        0.0000
   2775 C          42.7584    3.4523    5.6681 C.3     1  UNL1        0.0000
   2776 C          26.2014    3.8943    8.2680 C.ar    1  UNL1        0.0000
   2777 C          35.1079    4.8230    6.3605 C.ar    1  UNL1        0.0000
   2778 C          33.8068    2.6381    7.5559 C.ar    1  UNL1        0.0000
   2779 C          38.8989   10.1406    6.2660 C.2     1  UNL1        0.0000
   2780 C          30.2308   -2.8797    7.6108 C.2     1  UNL1        0.0000
   2781 C          40.0542    1.2319    0.2993 C.2     1  UNL1        0.0000
   2782 C          33.7892   13.5945    0.3424 C.2     1  UNL1        0.0000
   2783 C          43.7410    6.6614    0.1732 C.2     1  UNL1        0.0000
   2784 C          30.1485    8.1642    0.1622 C.2     1  UNL1        0.0000
   2785 C          35.8304    5.9023    5.6661 C.3     1  UNL1        0.0000
   2786 C          33.1099    1.4904    8.2086 C.3     1  UNL1        0.0000
   2787 C          38.2258    9.1018    5.4779 C.2     1  UNL1        0.0000
   2788 C          30.8765   -1.7885    8.3921 C.2     1  UNL1        0.0000
   2789 C          40.1078    2.7208    0.3025 C.2     1  UNL1        0.0000
   2790 C          33.7708   12.1267    0.2963 C.2     1  UNL1        0.0000
   2791 C          42.4520    5.9523    0.1980 C.2     1  UNL1        0.0000
   2792 C          31.4467    8.8997    0.1988 C.2     1  UNL1        0.0000
   2793 C          33.7381    4.9508    6.7608 C.ar    1  UNL1        0.0000
   2794 C          35.1632    2.5207    7.1831 C.ar    1  UNL1        0.0000
   2795 C          38.1788   11.3139    6.5894 C.3     1  UNL1        0.0000
   2796 C          30.9668   -4.0198    7.3077 C.3     1  UNL1        0.0000
   2797 C          39.9639    0.5651    1.5159 C.3     1  UNL1        0.0000
   2798 C          29.0248    6.8228   12.4826 C.ar    1  UNL1        0.0000
   2799 C          44.3192    7.0390    1.4069 C.3     1  UNL1        0.0000
   2800 C          24.7524    0.3256   12.2937 C.ar    1  UNL1        0.0000
   2801 C          40.2611   10.0070    6.6896 C.3     1  UNL1        0.0000
   2802 C          28.8854   -2.7531    7.2035 C.3     1  UNL1        0.0000
   2803 C          35.7865    3.6040    6.5910 C.ar    1  UNL1        0.0000
   2804 C          33.1134    3.8260    7.3498 C.ar    1  UNL1        0.0000
   2805 C          39.5464   -0.4688   12.3115 C.3     1  UNL1        0.0000
   2806 C          29.5030    7.8100    1.3667 C.2     1  UNL1        0.0000
   2807 C          35.2204   -6.9615   12.4424 C.3     1  UNL1        0.0000
   2808 C          33.7494   14.3198    1.5776 C.2     1  UNL1        0.0000
   2809 N          33.0312    6.1161    6.6291 N.pl3   1  UNL1        0.0000
   2810 N          33.6159   13.7141    2.7945 N.pl3   1  UNL1        0.0000
   2811 N          39.0783   -0.8375   11.0795 N.3     1  UNL1        0.0000
   2812 N          41.0083    8.8858    6.4531 N.3     1  UNL1        0.0000
   2813 N          40.2177    5.0677    7.8691 N.3     1  UNL1        0.0000
   2814 N          38.1980   -4.5180    9.6139 N.3     1  UNL1        0.0000
   2815 O          39.7680    5.5005    5.2945 O.2     1  UNL1        0.0000
   2816 O          29.1506    1.8065    8.5443 O.3     1  UNL1        0.0000
   2817 O          36.2224   -2.8647   10.2208 O.2     1  UNL1        0.0000
   2818 O          32.7327   10.1930    3.6618 O.3     1  UNL1        0.0000
   2819 O          34.0874    9.3445    5.2631 O.3     1  UNL1        0.0000
   2820 O          34.9742   -1.9400    8.5853 O.2     1  UNL1        0.0000
   2821 O          41.1040    4.5481    3.7432 O.2     1  UNL1        0.0000
   2822 O          27.9754    2.9005   10.1388 O.3     1  UNL1        0.0000
   2823 O          38.4327    4.8709    2.9453 O.3     1  UNL1        0.0000
   2824 O          30.6251    2.4607   10.8308 O.3     1  UNL1        0.0000
   2825 O          39.8459    6.8872    2.8784 O.3     1  UNL1        0.0000
   2826 O          29.1366    0.5123   11.0150 O.3     1  UNL1        0.0000
   2827 O          33.5764   -2.6709   10.8378 O.3     1  UNL1        0.0000
   2828 O          35.3788   10.0606    2.9745 O.3     1  UNL1        0.0000
   2829 O          34.8130   -0.5596   11.0909 O.3     1  UNL1        0.0000
   2830 O          34.2220    7.8929    2.8166 O.3     1  UNL1        0.0000
   2831 O          37.0740    5.7142    5.3762 O.3     1  UNL1        0.0000
   2832 O          31.8503    1.5703    8.3959 O.3     1  UNL1        0.0000
   2833 O          38.8548    8.0422    5.1515 O.2     1  UNL1        0.0000
   2834 O          30.1485   -0.8158    8.7797 O.2     1  UNL1        0.0000
   2835 O          35.2341   -4.1561   12.5321 O.2     1  UNL1        0.0000
   2836 O          33.6764   11.4595    1.3845 O.2     1  UNL1        0.0000
   2837 O          37.0295   -1.8329   12.4497 O.2     1  UNL1        0.0000
   2838 O          31.9835    9.0650    1.3531 O.2     1  UNL1        0.0000
   2839 O          36.9965    9.2978    5.1243 O.2     1  UNL1        0.0000
   2840 O          32.1238   -1.8829    8.6433 O.2     1  UNL1        0.0000
   2841 O          35.2079    6.9805    5.3636 O.3     1  UNL1        0.0000
   2842 O          33.8301    0.4883    8.5509 O.3     1  UNL1        0.0000
   2843 O          41.9320    5.6665    1.3425 O.2     1  UNL1        0.0000
   2844 O          27.0951    1.8281   12.4654 O.3     1  UNL1        0.0000
   2845 O          40.1617    3.3215    1.4204 O.2     1  UNL1        0.0000
   2846 O          29.0088    4.0639   12.5128 O.3     1  UNL1        0.0000
   2847 O          36.9072    7.3672    3.1059 O.3     1  UNL1        0.0000
   2848 O          32.0857    0.0020   10.7118 O.3     1  UNL1        0.0000
   2849 O          39.3236    5.7969    0.2913 O.3     1  UNL1        0.0000
   2850 O          34.5472    9.0147    0.2065 O.3     1  UNL1        0.0000
   2851 H          32.3413    3.1510   12.7729 H      34  UNL34       0.0000
   2852 H          33.8504    3.0111   10.4562 H      34  UNL34       0.0000
   2853 C          33.3683    2.8365   12.6260 C.2    34  UNL34       0.0000
   2854 H          36.3470    3.8722    9.7539 H      34  UNL34       0.0000
   2855 C          34.1131    2.7642   11.4769 C.2    34  UNL34       0.0000
   2856 H          33.6908    3.3574   15.4827 H      34  UNL34       0.0000
   2857 N          34.1840    2.4087   13.6644 N.pl3  34  UNL34       0.0000
   2858 C          37.0833    3.2871   10.3197 C.3    34  UNL34       0.0000
   2859 H          37.4981    3.9138   11.1192 H      34  UNL34       0.0000
   2860 C          33.8124    2.3441   15.0849 C.3    34  UNL34       0.0000
   2861 N          35.3663    2.2958   11.8261 N.pl3  34  UNL34       0.0000
   2862 H          32.8688    1.7970   15.1917 H      34  UNL34       0.0000
   2863 H          37.8969    3.0276    9.6254 H      34  UNL34       0.0000
   2864 C          35.3922    2.0884   13.1559 C.3    34  UNL34       0.0000
   2865 C          36.4709    2.0098   10.8811 C.3    34  UNL34       0.0000
   2866 H          36.0404    1.3698   10.1015 H      34  UNL34       0.0000
   2867 H          34.5912    1.8026   15.6336 H      34  UNL34       0.0000
   2868 H          36.2379    1.7206   13.7253 H      34  UNL34       0.0000
   2869 H          37.2052    1.4065   11.4291 H      34  UNL34       0.0000
   2870 TI         24.1821   -5.2629   25.0959 Ti      1  UNL1        0.0000
   2871 TI         35.2601   -2.2001   15.4852 Ti      1  UNL1        0.0000
   2872 TI         28.7270   -8.5776   23.2000 Ti      1  UNL1        0.0000
   2873 TI         30.6679    1.1136   17.3768 Ti      1  UNL1        0.0000
   2874 TI         28.9952    2.0021   15.4097 Ti      1  UNL1        0.0000
   2875 TI         30.1982   -9.7423   25.1692 Ti      1  UNL1        0.0000
   2876 TI         25.6293   -6.5632   23.1968 Ti      1  UNL1        0.0000
   2877 TI         33.5442   -1.1564   17.3339 Ti      1  UNL1        0.0000
   2878 H          30.8299   -5.8949   20.7199 H       1  UNL1        0.0000
   2879 H          27.1443  -11.5647   21.0056 H       1  UNL1        0.0000
   2880 H          32.2938    3.8995   19.6068 H       1  UNL1        0.0000
   2881 H          24.1946   -1.2426   24.9277 H       1  UNL1        0.0000
   2882 H          35.0862   -6.3302   15.7948 H       1  UNL1        0.0000
   2883 H          20.4292   -6.8753   24.7470 H       1  UNL1        0.0000
   2884 H          38.9326   -0.7223   15.6740 H       1  UNL1        0.0000
   2885 H          30.4296  -13.8986   24.8647 H       1  UNL1        0.0000
   2886 H          25.0917    0.6182   15.6759 H       1  UNL1        0.0000
   2887 H          31.9692   -3.9373   19.6343 H       1  UNL1        0.0000
   2888 H          27.2160   -3.5932   21.0203 H       1  UNL1        0.0000
   2889 H          23.4780   -9.3320   20.8166 H       1  UNL1        0.0000
   2890 H          29.8609    0.5784   13.4889 H       1  UNL1        0.0000
   2891 H          34.2400   -0.7359   13.6597 H       1  UNL1        0.0000
   2892 H          27.6016   -6.9027   24.7658 H       1  UNL1        0.0000
   2893 H          31.5997   -0.6365   15.7809 H       1  UNL1        0.0000
   2894 H          30.8358   -9.9227   19.7215 H       1  UNL1        0.0000
   2895 H          28.4967    2.2655   20.8774 H       1  UNL1        0.0000
   2896 H          21.1534   -3.4530   22.6919 H       1  UNL1        0.0000
   2897 H          38.0964   -4.1507   17.9660 H       1  UNL1        0.0000
   2898 H          23.6166   -5.1022   19.5786 H       1  UNL1        0.0000
   2899 H          26.0669    4.1906   17.8967 H       1  UNL1        0.0000
   2900 H          27.1707   -1.3964   20.1066 H       1  UNL1        0.0000
   2901 H          28.5841   -0.6322   19.4097 H       1  UNL1        0.0000
   2902 H          28.8305    5.2198   16.1974 H       1  UNL1        0.0000
   2903 H          35.0501   -8.3843   16.9944 H      45  UNL45       0.0000
   2904 H          34.6279   -7.8827   23.6210 H       1  UNL1        0.0000
   2905 H          33.2766   -8.6905   24.3886 H       1  UNL1        0.0000
   2906 H          37.1521    1.4514   19.9685 H       1  UNL1        0.0000
   2907 H          35.7805    0.7198   19.1597 H       1  UNL1        0.0000
   2908 H          35.2796   -2.1901   22.2137 H       1  UNL1        0.0000
   2909 H          34.7840   -1.9235   20.5504 H       1  UNL1        0.0000
   2910 H          34.1942  -12.5087   23.1676 H       1  UNL1        0.0000
   2911 H          32.8584  -11.5163   23.7286 H       1  UNL1        0.0000
   2912 C          35.9321   -2.7015   18.3306 C.2     1  UNL1        0.0000
   2913 C          23.3492   -4.8959   22.2769 C.3     1  UNL1        0.0000
   2914 C          31.0936  -10.1611   22.3308 C.2     1  UNL1        0.0000
   2915 C          28.2082    2.5451   18.2447 C.3     1  UNL1        0.0000
   2916 C          36.7647   -3.2740   19.3989 C.2     1  UNL1        0.0000
   2917 C          22.4582   -4.3201   21.2326 C.ar    1  UNL1        0.0000
   2918 C          31.9440  -10.8171   21.3242 C.2     1  UNL1        0.0000
   2919 C          27.3623    3.1688   19.3011 C.ar    1  UNL1        0.0000
   2920 C          36.4642   -3.0846   20.7875 C.3     1  UNL1        0.0000
   2921 C          22.7439   -4.5222   19.8650 C.ar    1  UNL1        0.0000
   2922 C          33.0304  -11.6810   21.6850 C.3     1  UNL1        0.0000
   2923 C          26.2834    4.0079   18.9455 C.ar    1  UNL1        0.0000
   2924 C          27.6591    2.9173   20.6364 C.ar    1  UNL1        0.0000
   2925 C          31.6687  -10.5816   19.9571 C.3     1  UNL1        0.0000
   2926 C          37.9029   -4.0274   19.0291 C.3     1  UNL1        0.0000
   2927 C          21.3459   -3.5854   21.6290 C.ar    1  UNL1        0.0000
   2928 C          30.2524   -2.6567   19.7215 C.ar    1  UNL1        0.0000
   2929 C          28.9513   -4.8417   20.9169 C.ar    1  UNL1        0.0000
   2930 C          34.0433    2.6609   19.6270 C.2     1  UNL1        0.0000
   2931 C          25.3753  -10.3594   20.9718 C.2     1  UNL1        0.0000
   2932 C          35.1987   -6.2479   13.6603 C.2     1  UNL1        0.0000
   2933 C          28.9337    6.1148   13.7034 C.ar    1  UNL1        0.0000
   2934 C          38.8854   -0.8184   13.5342 C.2     1  UNL1        0.0000
   2935 C          25.2930    0.6845   13.5232 C.ar    1  UNL1        0.0000
   2936 C          30.9749   -1.5775   19.0271 C.3     1  UNL1        0.0000
   2937 C          28.2543   -5.9894   21.5696 C.3     1  UNL1        0.0000
   2938 C          33.3703    1.6220   18.8389 C.2     1  UNL1        0.0000
   2939 C          26.0209   -9.2682   21.7531 C.2     1  UNL1        0.0000
   2940 C          35.2523   -4.7589   13.6635 C.2     1  UNL1        0.0000
   2941 C          28.9153    4.6469   13.6573 C.3     1  UNL1        0.0000
   2942 C          37.5965   -1.5275   13.5590 C.2     1  UNL1        0.0000
   2943 C          26.5912    1.4200   13.5598 C.3     1  UNL1        0.0000
   2944 C          28.8826   -2.5290   20.1218 C.ar    1  UNL1        0.0000
   2945 C          30.3076   -4.9591   20.5441 C.ar    1  UNL1        0.0000
   2946 C          33.3233    3.8341   19.9504 C.3     1  UNL1        0.0000
   2947 C          26.1112  -11.4996   20.6687 C.3     1  UNL1        0.0000
   2948 C          35.1083   -6.9146   14.8769 C.3     1  UNL1        0.0000
   2949 C          24.1693   -0.6569   25.8436 C.ar    1  UNL1        0.0000
   2950 C          39.4637   -0.4407   14.7679 C.3     1  UNL1        0.0000
   2951 C          19.8969   -7.1542   25.6547 C.ar    1  UNL1        0.0000
   2952 C          35.4056    2.5273   20.0506 C.3     1  UNL1        0.0000
   2953 C          24.0299  -10.2328   20.5645 C.3     1  UNL1        0.0000
   2954 C          30.9310   -3.8757   19.9520 C.ar    1  UNL1        0.0000
   2955 C          28.2579   -3.6537   20.7108 C.ar    1  UNL1        0.0000
   2956 C          34.6909   -7.9485   25.6725 C.3     1  UNL1        0.0000
   2957 C          24.6475    0.3303   14.7277 C.ar    1  UNL1        0.0000
   2958 C          30.3649  -14.4413   25.8034 C.3     1  UNL1        0.0000
   2959 C          28.8939    6.8400   14.9386 C.ar    1  UNL1        0.0000
   2960 N          28.1757   -1.3636   19.9901 N.pl3   1  UNL1        0.0000
   2961 N          28.7603    6.2344   16.1555 N.pl3   1  UNL1        0.0000
   2962 N          34.2227   -8.3173   24.4405 N.3     1  UNL1        0.0000
   2963 N          36.1528    1.4061   19.8141 N.3     1  UNL1        0.0000
   2964 N          35.3622   -2.4121   21.2301 N.3     1  UNL1        0.0000
   2965 N          33.3425  -11.9977   22.9749 N.3     1  UNL1        0.0000
   2966 O          34.9125   -1.9792   18.6555 O.2     1  UNL1        0.0000
   2967 O          24.2951   -5.6732   21.9053 O.3     1  UNL1        0.0000
   2968 O          31.3668  -10.3444   23.5818 O.2     1  UNL1        0.0000
   2969 O          27.8772    2.7132   17.0228 O.3     1  UNL1        0.0000
   2970 O          29.2318    1.8648   18.6241 O.3     1  UNL1        0.0000
   2971 O          30.1187   -9.4198   21.9463 O.2     1  UNL1        0.0000
   2972 O          36.2485   -2.9316   17.1042 O.2     1  UNL1        0.0000
   2973 O          23.1199   -4.5793   23.4998 O.3     1  UNL1        0.0000
   2974 O          33.5771   -2.6088   16.3063 O.3     1  UNL1        0.0000
   2975 O          25.7696   -5.0191   24.1918 O.3     1  UNL1        0.0000
   2976 O          34.9904   -0.5925   16.2394 O.3     1  UNL1        0.0000
   2977 O          24.2810   -6.9674   24.3760 O.3     1  UNL1        0.0000
   2978 O          28.7209  -10.1506   24.1988 O.3     1  UNL1        0.0000
   2979 O          30.5233    2.5809   16.3355 O.3     1  UNL1        0.0000
   2980 O          29.9575   -8.0394   24.4519 O.3     1  UNL1        0.0000
   2981 O          29.3665    0.4131   16.1776 O.3     1  UNL1        0.0000
   2982 O          32.2184   -1.7656   18.7372 O.3     1  UNL1        0.0000
   2983 O          26.9948   -5.9095   21.7569 O.3     1  UNL1        0.0000
   2984 O          33.9993    0.5625   18.5125 O.2     1  UNL1        0.0000
   2985 O          25.2929   -8.2956   22.1407 O.2     1  UNL1        0.0000
   2986 O          30.3786  -11.6359   25.8931 O.2     1  UNL1        0.0000
   2987 O          28.8208    3.9797   14.7455 O.3     1  UNL1        0.0000
   2988 O          32.1740   -9.3127   25.8107 O.2     1  UNL1        0.0000
   2989 O          27.1280    1.5852   14.7141 O.3     1  UNL1        0.0000
   2990 O          32.1410    1.8181   18.4853 O.2     1  UNL1        0.0000
   2991 O          27.2683   -9.3626   22.0043 O.2     1  UNL1        0.0000
   2992 O          30.3523   -0.4992   18.7246 O.3     1  UNL1        0.0000
   2993 O          28.9746   -6.9915   21.9119 O.3     1  UNL1        0.0000
   2994 O          37.0765   -1.8132   14.7035 O.2     1  UNL1        0.0000
   2995 O          22.2396   -5.6517   25.8264 O.3     1  UNL1        0.0000
   2996 O          35.3061   -4.1582   14.7814 O.2     1  UNL1        0.0000
   2997 O          24.1533   -3.4158   25.8738 O.3     1  UNL1        0.0000
   2998 O          32.0516   -0.1125   16.4669 O.3     1  UNL1        0.0000
   2999 O          27.2301   -7.4778   24.0728 O.3     1  UNL1        0.0000
   3000 O          34.4681   -1.6828   13.6523 O.3     1  UNL1        0.0000
   3001 O          29.6917    1.5350   13.5675 O.3     1  UNL1        0.0000
   3002 H          27.4857   -4.3288   26.1339 H      36  UNL36       0.0000
   3003 H          28.9949   -4.4687   23.8172 H      36  UNL36       0.0000
   3004 C          28.5128   -4.6432   25.9870 C.2    36  UNL36       0.0000
   3005 H          31.4914   -3.6075   23.1149 H      36  UNL36       0.0000
   3006 C          29.2576   -4.7155   24.8379 C.2    36  UNL36       0.0000
   3007 H          28.8352   -4.1223   28.8437 H      36  UNL36       0.0000
   3008 N          29.3284   -5.0710   27.0254 N.pl3  36  UNL36       0.0000
   3009 C          32.2278   -4.1927   23.6807 C.3    36  UNL36       0.0000
   3010 H          32.6425   -3.5660   24.4802 H      36  UNL36       0.0000
   3011 C          28.9568   -5.1356   28.4459 C.3    36  UNL36       0.0000
   3012 N          30.5108   -5.1840   25.1871 N.pl3  36  UNL36       0.0000
   3013 H          28.0133   -5.6828   28.5527 H      36  UNL36       0.0000
   3014 H          33.0413   -4.4521   22.9864 H      36  UNL36       0.0000
   3015 C          30.5366   -5.3913   26.5169 C.3    36  UNL36       0.0000
   3016 C          31.6153   -5.4699   24.2421 C.3    36  UNL36       0.0000
   3017 H          31.1849   -6.1100   23.4625 H      36  UNL36       0.0000
   3018 H          29.7357   -5.6772   28.9946 H      36  UNL36       0.0000
   3019 H          31.3823   -5.7592   27.0863 H      36  UNL36       0.0000
   3020 H          32.3497   -6.0733   24.7901 H      36  UNL36       0.0000
   3021 TI         19.3266  -12.7426   38.4569 Ti      1  UNL1        0.0000
   3022 TI         30.4046   -9.6799   28.8462 Ti      1  UNL1        0.0000
   3023 TI         23.8715  -16.0574   36.5610 Ti      1  UNL1        0.0000
   3024 TI         25.8123   -6.3661   30.7378 Ti      1  UNL1        0.0000
   3025 TI         24.1397   -5.4777   28.7707 Ti      1  UNL1        0.0000
   3026 TI         25.3427  -17.2221   38.5302 Ti      1  UNL1        0.0000
   3027 TI         20.7738  -14.0429   36.5578 Ti      1  UNL1        0.0000
   3028 TI         28.6887   -8.6361   30.6949 Ti      1  UNL1        0.0000
   3029 H          25.9744  -13.3746   34.0809 H       1  UNL1        0.0000
   3030 H          22.2888  -19.0445   34.3666 H       1  UNL1        0.0000
   3031 H          27.4382   -3.5803   32.9678 H       1  UNL1        0.0000
   3032 H          19.3390   -8.7223   38.2887 H      18  UNL18       0.0000
   3033 H          30.2307  -13.8099   29.1558 H       1  UNL1        0.0000
   3034 H          15.5736  -14.3550   38.1080 H      12  UNL12       0.0000
   3035 H          34.0771   -8.2021   29.0350 H       1  UNL1        0.0000
   3036 H          25.5740  -21.3783   38.2257 H      20  UNL20       0.0000
   3037 H          20.2361   -6.8615   29.0369 H       1  UNL1        0.0000
   3038 H          27.1136  -11.4171   32.9953 H       1  UNL1        0.0000
   3039 H          22.3604  -11.0729   34.3813 H       1  UNL1        0.0000
   3040 H          18.6224  -16.8117   34.1776 H       1  UNL1        0.0000
   3041 H          25.0054   -6.9013   26.8499 H       1  UNL1        0.0000
   3042 H          29.3845   -8.2157   27.0207 H       1  UNL1        0.0000
   3043 H          22.7460  -14.3824   38.1268 H       1  UNL1        0.0000
   3044 H          26.7442   -8.1162   29.1419 H       1  UNL1        0.0000
   3045 H          25.9803  -17.4024   33.0825 H       1  UNL1        0.0000
   3046 H          23.6412   -5.2142   34.2384 H       1  UNL1        0.0000
   3047 H          16.2979  -10.9328   36.0529 H       1  UNL1        0.0000
   3048 H          33.2409  -11.6304   31.3270 H       1  UNL1        0.0000
   3049 H          18.7611  -12.5819   32.9396 H       1  UNL1        0.0000
   3050 H          21.2114   -3.2891   31.2577 H       1  UNL1        0.0000
   3051 H          22.3152   -8.8761   33.4676 H       1  UNL1        0.0000
   3052 H          23.7286   -8.1120   32.7707 H       1  UNL1        0.0000
   3053 H          23.9749   -2.2600   29.5584 H       1  UNL1        0.0000
   3054 H          30.1945  -15.8641   30.3554 H      45  UNL45       0.0000
   3055 H          29.7723  -15.3625   36.9820 H      19  UNL19       0.0000
   3056 H          28.4211  -16.1703   37.7496 H      19  UNL19       0.0000
   3057 H          32.2966   -6.0283   33.3295 H       1  UNL1        0.0000
   3058 H          30.9250   -6.7600   32.5207 H       1  UNL1        0.0000
   3059 H          30.4240   -9.6698   35.5747 H       1  UNL1        0.0000
   3060 H          29.9284   -9.4033   33.9114 H       1  UNL1        0.0000
   3061 H          29.3387  -19.9884   36.5286 H       1  UNL1        0.0000
   3062 H          28.0029  -18.9960   37.0896 H       1  UNL1        0.0000
   3063 C          31.0766  -10.1813   31.6916 C.2     1  UNL1        0.0000
   3064 C          18.4937  -12.3756   35.6379 C.3     1  UNL1        0.0000
   3065 C          26.2381  -17.6408   35.6918 C.2     1  UNL1        0.0000
   3066 C          23.3527   -4.9347   31.6057 C.3     1  UNL1        0.0000
   3067 C          31.9092  -10.7537   32.7599 C.2     1  UNL1        0.0000
   3068 C          17.6026  -11.7998   34.5936 C.ar    1  UNL1        0.0000
   3069 C          27.0885  -18.2969   34.6852 C.2     1  UNL1        0.0000
   3070 C          22.5068   -4.3109   32.6621 C.ar    1  UNL1        0.0000
   3071 C          31.6087  -10.5643   34.1485 C.3     1  UNL1        0.0000
   3072 C          17.8884  -12.0020   33.2260 C.ar    1  UNL1        0.0000
   3073 C          28.1749  -19.1607   35.0460 C.3     1  UNL1        0.0000
   3074 C          21.4279   -3.4718   32.3065 C.ar    1  UNL1        0.0000
   3075 C          22.8035   -4.5625   33.9974 C.ar    1  UNL1        0.0000
   3076 C          26.8132  -18.0614   33.3181 C.3     1  UNL1        0.0000
   3077 C          33.0473  -11.5071   32.3901 C.3     1  UNL1        0.0000
   3078 C          16.4904  -11.0652   34.9900 C.ar    1  UNL1        0.0000
   3079 C          25.3968  -10.1365   33.0825 C.ar    1  UNL1        0.0000
   3080 C          24.0958  -12.3214   34.2779 C.ar    1  UNL1        0.0000
   3081 C          29.1878   -4.8189   32.9880 C.2     1  UNL1        0.0000
   3082 C          20.5198  -17.8392   34.3328 C.2     1  UNL1        0.0000
   3083 C          30.3431  -13.7276   27.0213 C.2     1  UNL1        0.0000
   3084 C          24.0782   -1.3650   27.0644 C.ar    1  UNL1        0.0000
   3085 C          34.0299   -8.2981   26.8952 C.2     1  UNL1        0.0000
   3086 C          20.4375   -6.7953   26.8842 C.ar    1  UNL1        0.0000
   3087 C          26.1193   -9.0572   32.3881 C.3     1  UNL1        0.0000
   3088 C          23.3988  -13.4691   34.9306 C.3     1  UNL1        0.0000
   3089 C          28.5148   -5.8577   32.1999 C.2     1  UNL1        0.0000
   3090 C          21.1654  -16.7479   35.1141 C.2     1  UNL1        0.0000
   3091 C          30.3968  -12.2387   27.0245 C.2     1  UNL1        0.0000
   3092 C          24.0597   -2.8328   27.0183 C.3     1  UNL1        0.0000
   3093 C          32.7409   -9.0072   26.9200 C.2     1  UNL1        0.0000
   3094 C          21.7357   -6.0597   26.9208 C.3     1  UNL1        0.0000
   3095 C          24.0271  -10.0087   33.4828 C.ar    1  UNL1        0.0000
   3096 C          25.4521  -12.4388   33.9051 C.ar    1  UNL1        0.0000
   3097 C          28.4678   -3.6456   33.3114 C.3     1  UNL1        0.0000
   3098 C          21.2557  -18.9793   34.0297 C.3     1  UNL1        0.0000
   3099 C          30.2528  -14.3943   28.2379 C.3     1  UNL1        0.0000
   3100 C          19.3138   -8.1367   39.2046 C.2    18  UNL18       0.0000
   3101 C          34.6082   -7.9204   28.1289 C.3     1  UNL1        0.0000
   3102 C          15.0413  -14.6339   39.0157 C.2    12  UNL12       0.0000
   3103 C          30.5501   -4.9524   33.4116 C.3     1  UNL1        0.0000
   3104 C          19.1744  -17.7126   33.9255 C.3     1  UNL1        0.0000
   3105 C          26.0755  -11.3554   33.3130 C.ar    1  UNL1        0.0000
   3106 C          23.4023  -11.1335   34.0718 C.ar    1  UNL1        0.0000
   3107 C          29.8353  -15.4283   39.0335 C.3    19  UNL19       0.0000
   3108 C          19.7920   -7.1495   28.0887 C.ar    1  UNL1        0.0000
   3109 C          25.5094  -21.9210   39.1644 C.3    38  UNL38       0.0000
   3110 C          24.0384   -0.6397   28.2996 C.ar    1  UNL1        0.0000
   3111 N          23.3202   -8.8434   33.3511 N.pl3   1  UNL1        0.0000
   3112 N          23.9048   -1.2454   29.5165 N.pl3   1  UNL1        0.0000
   3113 N          29.3672  -15.7970   37.8015 N.3    19  UNL19       0.0000
   3114 N          31.2973   -6.0737   33.1751 N.3     1  UNL1        0.0000
   3115 N          30.5067   -9.8918   34.5911 N.3     1  UNL1        0.0000
   3116 N          28.4870  -19.4775   36.3359 N.3     1  UNL1        0.0000
   3117 O          30.0570   -9.4590   32.0165 O.2     1  UNL1        0.0000
   3118 O          19.4395  -13.1529   35.2663 O.3     1  UNL1        0.0000
   3119 O          26.5113  -17.8242   36.9428 O.2     1  UNL1        0.0000
   3120 O          23.0217   -4.7665   30.3838 O.3     1  UNL1        0.0000
   3121 O          24.3763   -5.6149   31.9851 O.3     1  UNL1        0.0000
   3122 O          25.2632  -16.8995   35.3073 O.2     1  UNL1        0.0000
   3123 O          31.3929  -10.4114   30.4652 O.2     1  UNL1        0.0000
   3124 O          18.2644  -12.0590   36.8608 O.3     1  UNL1        0.0000
   3125 O          28.7216  -10.0886   29.6673 O.3     1  UNL1        0.0000
   3126 O          20.9140  -12.4988   37.5528 O.3     1  UNL1        0.0000
   3127 O          30.1349   -8.0722   29.6004 O.3     1  UNL1        0.0000
   3128 O          19.4255  -14.4472   37.7370 O.3     1  UNL1        0.0000
   3129 O          23.8654  -17.6304   37.5597 O.3     1  UNL1        0.0000
   3130 O          25.6677   -4.8989   29.6964 O.3     1  UNL1        0.0000
   3131 O          25.1019  -15.5191   37.8129 O.3     1  UNL1        0.0000
   3132 O          24.5110   -7.0666   29.5386 O.3     1  UNL1        0.0000
   3133 O          27.3629   -9.2453   32.0982 O.3     1  UNL1        0.0000
   3134 O          22.1393  -13.3892   35.1179 O.3     1  UNL1        0.0000
   3135 O          29.1438   -6.9173   31.8735 O.2     1  UNL1        0.0000
   3136 O          20.4374  -15.7753   35.5017 O.2     1  UNL1        0.0000
   3137 O          25.5231  -19.1156   39.2541 O.3     1  UNL1        0.0000
   3138 O          23.9653   -3.5000   28.1064 O.3     1  UNL1        0.0000
   3139 O          27.3185  -16.7924   39.1717 O.3     1  UNL1        0.0000
   3140 O          22.2725   -5.8945   28.0751 O.3     1  UNL1        0.0000
   3141 O          27.2855   -5.6617   31.8463 O.2     1  UNL1        0.0000
   3142 O          22.4127  -16.8424   35.3653 O.2     1  UNL1        0.0000
   3143 O          25.4968   -7.9790   32.0856 O.3     1  UNL1        0.0000
   3144 O          24.1191  -14.4712   35.2729 O.3     1  UNL1        0.0000
   3145 O          32.2210   -9.2930   28.0645 O.2     1  UNL1        0.0000
   3146 O          17.3840  -13.1314   39.1874 O.3     1  UNL1        0.0000
   3147 O          30.4506  -11.6380   28.1424 O.2     1  UNL1        0.0000
   3148 O          19.2977  -10.8956   39.2348 O.3     1  UNL1        0.0000
   3149 O          27.1961   -7.5923   29.8279 O.3     1  UNL1        0.0000
   3150 O          22.3746  -14.9575   37.4338 O.3     1  UNL1        0.0000
   3151 O          29.6125   -9.1626   27.0133 O.3     1  UNL1        0.0000
   3152 O          24.8361   -5.9448   26.9285 O.3     1  UNL1        0.0000
   3153 H          22.6302  -11.8085   39.4949 H      39  UNL39       0.0000
   3154 H          24.1393  -11.9484   37.1782 H      39  UNL39       0.0000
   3155 C          23.6573  -12.1230   39.3480 C.2    39  UNL39       0.0000
   3156 H          26.6359  -11.0873   36.4759 H      39  UNL39       0.0000
   3157 C          24.4021  -12.1953   38.1989 C.2    39  UNL39       0.0000
   3158 H          23.9797  -11.6021   42.2047 H      39  UNL39       0.0000
   3159 N          24.4729  -12.5507   40.3864 N.pl3  39  UNL39       0.0000
   3160 C          27.3722  -11.6724   37.0417 C.3    39  UNL39       0.0000
   3161 H          27.7870  -11.0457   37.8412 H      39  UNL39       0.0000
   3162 C          24.1013  -12.6153   41.8069 C.3    39  UNL39       0.0000
   3163 N          25.6552  -12.6637   38.5481 N.pl3  39  UNL39       0.0000
   3164 H          23.1578  -13.1625   41.9137 H      39  UNL39       0.0000
   3165 H          28.1858  -11.9319   36.3474 H      39  UNL39       0.0000
   3166 C          25.6811  -12.8710   39.8779 C.3    39  UNL39       0.0000
   3167 C          26.7598  -12.9497   37.6031 C.3    39  UNL39       0.0000
   3168 H          26.3294  -13.5897   36.8234 H      39  UNL39       0.0000
   3169 H          24.8802  -13.1569   42.3556 H      39  UNL39       0.0000
   3170 H          26.5268  -13.2389   40.4473 H      39  UNL39       0.0000
   3171 H          27.4941  -13.5530   38.1511 H      39  UNL39       0.0000
   3172 TI         22.9008   17.3823   11.7335 Ti      1  UNL1        0.0000
   3173 TI         33.9787   20.4451    2.1228 Ti      1  UNL1        0.0000
   3174 TI         27.4457   14.0676    9.8376 Ti      1  UNL1        0.0000
   3175 TI         29.3865   23.7588    4.0144 Ti      1  UNL1        0.0000
   3176 TI         27.7139   24.6473    2.0473 Ti      1  UNL1        0.0000
   3177 TI         28.9169   12.9029   11.8068 Ti      1  UNL1        0.0000
   3178 TI         24.3480   16.0820    9.8344 Ti      1  UNL1        0.0000
   3179 TI         32.2629   21.4888    3.9715 Ti      1  UNL1        0.0000
   3180 H          29.5486   16.7503    7.3575 H       1  UNL1        0.0000
   3181 H          25.8630   11.0805    7.6432 H       1  UNL1        0.0000
   3182 H          31.0124   26.5447    6.2444 H       1  UNL1        0.0000
   3183 H          22.9132   21.4026   11.5653 H       1  UNL1        0.0000
   3184 H          33.8049   16.3150    2.4324 H       1  UNL1        0.0000
   3185 H          19.1478   15.7699   11.3845 H       1  UNL1        0.0000
   3186 H          37.6513   21.9229    2.3115 H       1  UNL1        0.0000
   3187 H          29.1482    8.7466   11.5023 H       1  UNL1        0.0000
   3188 H          23.8103   23.2634    2.3135 H       1  UNL1        0.0000
   3189 H          30.6878   18.7079    6.2719 H       1  UNL1        0.0000
   3190 H          25.9346   19.0520    7.6579 H       1  UNL1        0.0000
   3191 H          22.1966   13.3132    7.4542 H       1  UNL1        0.0000
   3192 H          28.5796   23.2236    0.1265 H       1  UNL1        0.0000
   3193 H          32.9587   21.9093    0.2973 H       1  UNL1        0.0000
   3194 H          26.3202   15.7425   11.4034 H       1  UNL1        0.0000
   3195 H          30.3184   22.0087    2.4185 H       1  UNL1        0.0000
   3196 H          29.5545   12.7225    6.3591 H       1  UNL1        0.0000
   3197 H          27.2154   24.9107    7.5150 H       1  UNL1        0.0000
   3198 H          19.8721   19.1922    9.3295 H       1  UNL1        0.0000
   3199 H          36.8151   18.4945    4.6036 H       1  UNL1        0.0000
   3200 H          22.3353   17.5430    6.2162 H       1  UNL1        0.0000
   3201 H          24.7856   26.8358    4.5343 H       1  UNL1        0.0000
   3202 H          25.8894   21.2488    6.7441 H       1  UNL1        0.0000
   3203 H          27.3028   22.0130    6.0473 H       1  UNL1        0.0000
   3204 H          27.5491   27.8650    2.8349 H       1  UNL1        0.0000
   3205 H          33.7687   14.2609    3.6320 H       1  UNL1        0.0000
   3206 H          33.3465   14.7625   10.2586 H       1  UNL1        0.0000
   3207 H          31.9953   13.9547   11.0262 H       1  UNL1        0.0000
   3208 H          35.8708   24.0966    6.6061 H       1  UNL1        0.0000
   3209 H          34.4991   23.3650    5.7973 H       1  UNL1        0.0000
   3210 H          33.9982   20.4551    8.8513 H       1  UNL1        0.0000
   3211 H          33.5026   20.7217    7.1880 H       1  UNL1        0.0000
   3212 H          32.9129   10.1365    9.8052 H       1  UNL1        0.0000
   3213 H          31.5771   11.1289   10.3662 H       1  UNL1        0.0000
   3214 C          34.6508   19.9437    4.9681 C.2     1  UNL1        0.0000
   3215 C          22.0679   17.7493    8.9145 C.3     1  UNL1        0.0000
   3216 C          29.8122   12.4841    8.9684 C.3     1  UNL1        0.0000
   3217 C          26.9269   25.1903    4.8823 C.3     1  UNL1        0.0000
   3218 C          35.4833   19.3712    6.0365 C.2     1  UNL1        0.0000
   3219 C          21.1768   18.3251    7.8702 C.ar    1  UNL1        0.0000
   3220 C          30.6627   11.8281    7.9617 C.ar    1  UNL1        0.0000
   3221 C          26.0810   25.8140    5.9387 C.ar    1  UNL1        0.0000
   3222 C          35.1828   19.5606    7.4251 C.3     1  UNL1        0.0000
   3223 C          21.4626   18.1230    6.5026 C.ar    1  UNL1        0.0000
   3224 C          31.7491   10.9642    8.3225 C.ar    1  UNL1        0.0000
   3225 C          25.0021   26.6531    5.5831 C.ar    1  UNL1        0.0000
   3226 C          26.3777   25.5625    7.2740 C.ar    1  UNL1        0.0000
   3227 C          30.3874   12.0636    6.5947 C.ar    1  UNL1        0.0000
   3228 C          36.6215   18.6178    5.6667 C.3     1  UNL1        0.0000
   3229 C          20.0646   19.0598    8.2666 C.ar    1  UNL1        0.0000
   3230 C          28.9710   19.9885    6.3590 C.ar    1  UNL1        0.0000
   3231 C          27.6700   17.8035    7.5545 C.ar    1  UNL1        0.0000
   3232 C          32.7620   25.3061    6.2646 C.2     1  UNL1        0.0000
   3233 C          24.0940   12.2858    7.6094 C.ar    1  UNL1        0.0000
   3234 C          33.9173   16.3973    0.2979 C.2     1  UNL1        0.0000
   3235 C          27.6524   28.7600    0.3410 C.2     1  UNL1        0.0000
   3236 C          37.6041   21.8268    0.1718 C.2     1  UNL1        0.0000
   3237 C          24.0116   23.3297    0.1608 C.2     1  UNL1        0.0000
   3238 C          29.6935   21.0677    5.6647 C.3     1  UNL1        0.0000
   3239 C          26.9730   16.6558    8.2072 C.3     1  UNL1        0.0000
   3240 C          32.0890   24.2672    5.4765 C.2     1  UNL1        0.0000
   3241 C          24.7396   13.3770    8.3907 C.3     1  UNL1        0.0000
   3242 C          33.9709   17.8863    0.3011 C.2     1  UNL1        0.0000
   3243 C          27.6339   27.2921    0.2949 C.2     1  UNL1        0.0000
   3244 C          36.3151   21.1177    0.1966 C.2     1  UNL1        0.0000
   3245 C          25.3099   24.0652    0.1974 C.2     1  UNL1        0.0000
   3246 C          27.6013   20.1162    6.7594 C.ar    1  UNL1        0.0000
   3247 C          29.0263   17.6862    7.1817 C.ar    1  UNL1        0.0000
   3248 C          32.0420   26.4793    6.5880 C.3     1  UNL1        0.0000
   3249 C          24.8299   11.1456    7.3063 C.ar    1  UNL1        0.0000
   3250 C          33.8270   15.7306    1.5145 C.2     1  UNL1        0.0000
   3251 C          22.8879   21.9883   12.4812 C.ar    1  UNL1        0.0000
   3252 C          38.1823   22.2045    1.4055 C.3     1  UNL1        0.0000
   3253 C          18.6155   15.4910   12.2923 C.ar    1  UNL1        0.0000
   3254 C          34.1243   25.1725    6.6882 C.3     1  UNL1        0.0000
   3255 C          22.7486   12.4124    7.2021 C.ar    1  UNL1        0.0000
   3256 C          29.6497   18.7695    6.5895 C.ar    1  UNL1        0.0000
   3257 C          26.9765   18.9915    7.3484 C.ar    1  UNL1        0.0000
   3258 C          33.4095   14.6967   12.3101 C.3     1  UNL1        0.0000
   3259 C          23.3662   22.9755    1.3653 C.2     1  UNL1        0.0000
   3260 C          29.0835    8.2039   12.4410 C.ar    1  UNL1        0.0000
   3261 C          27.6126   29.4852    1.5762 C.2     1  UNL1        0.0000
   3262 N          26.8943   21.2816    6.6277 N.pl3   1  UNL1        0.0000
   3263 N          27.4790   28.8796    2.7931 N.pl3   1  UNL1        0.0000
   3264 N          32.9414   14.3279   11.0780 N.3     1  UNL1        0.0000
   3265 N          34.8715   24.0513    6.4517 N.3     1  UNL1        0.0000
   3266 N          34.0809   20.2331    7.8677 N.3     1  UNL1        0.0000
   3267 N          32.0612   10.6475    9.6125 N.pl3   1  UNL1        0.0000
   3268 O          33.6312   20.6660    5.2931 O.2     1  UNL1        0.0000
   3269 O          23.0137   16.9720    8.5429 O.3     1  UNL1        0.0000
   3270 O          30.0855   12.3008   10.2194 O.3     1  UNL1        0.0000
   3271 O          26.5959   25.3584    3.6604 O.3     1  UNL1        0.0000
   3272 O          27.9505   24.5100    5.2616 O.3     1  UNL1        0.0000
   3273 O          28.8373   13.2254    8.5839 O.3     1  UNL1        0.0000
   3274 O          34.9671   19.7136    3.7418 O.2     1  UNL1        0.0000
   3275 O          21.8386   18.0659   10.1374 O.3     1  UNL1        0.0000
   3276 O          32.2958   20.0364    2.9439 O.3     1  UNL1        0.0000
   3277 O          24.4882   17.6261   10.8294 O.3     1  UNL1        0.0000
   3278 O          33.7091   22.0527    2.8770 O.3     1  UNL1        0.0000
   3279 O          22.9997   15.6778   11.0136 O.3     1  UNL1        0.0000
   3280 O          27.4396   12.4946   10.8363 O.3     1  UNL1        0.0000
   3281 O          29.2419   25.2261    2.9730 O.3     1  UNL1        0.0000
   3282 O          28.6761   14.6058   11.0895 O.3     1  UNL1        0.0000
   3283 O          28.0851   23.0583    2.8152 O.3     1  UNL1        0.0000
   3284 O          30.9371   20.8796    5.3747 O.3     1  UNL1        0.0000
   3285 O          25.7135   16.7357    8.3945 O.3     1  UNL1        0.0000
   3286 O          32.7180   23.2077    5.1501 O.2     1  UNL1        0.0000
   3287 O          24.0116   14.3496    8.7783 O.3     1  UNL1        0.0000
   3288 O          29.0973   11.0093   12.5306 O.3     1  UNL1        0.0000
   3289 O          27.5395   26.6249    1.3830 O.2     1  UNL1        0.0000
   3290 O          30.8927   13.3325   12.4483 O.2     1  UNL1        0.0000
   3291 O          25.8467   24.2304    1.3517 O.2     1  UNL1        0.0000
   3292 O          30.8597   24.4633    5.1229 O.2     1  UNL1        0.0000
   3293 O          25.9869   13.2826    8.6419 O.3     1  UNL1        0.0000
   3294 O          29.0710   22.1460    5.3622 O.3     1  UNL1        0.0000
   3295 O          27.6933   15.6537    8.5495 O.3     1  UNL1        0.0000
   3296 O          35.7952   20.8320    1.3411 O.2     1  UNL1        0.0000
   3297 O          20.9582   16.9935   12.4640 O.3     1  UNL1        0.0000
   3298 O          34.0248   18.4870    1.4190 O.2     1  UNL1        0.0000
   3299 O          22.8719   19.2294   12.5114 O.3     1  UNL1        0.0000
   3300 O          30.7703   22.5327    3.1045 O.3     1  UNL1        0.0000
   3301 O          25.9488   15.1674   10.7104 O.3     1  UNL1        0.0000
   3302 O          33.1867   20.9624    0.2899 O.3     1  UNL1        0.0000
   3303 O          28.4103   24.1802    0.2051 O.3     1  UNL1        0.0000
   3304 H          26.2044   18.3164   12.7715 H      40  UNL40       0.0000
   3305 H          27.7135   18.1765   10.4548 H      40  UNL40       0.0000
   3306 C          27.2315   18.0020   12.6246 C.2    40  UNL40       0.0000
   3307 H          30.2101   19.0377    9.7525 H      40  UNL40       0.0000
   3308 C          27.9763   17.9297   11.4755 C.2    40  UNL40       0.0000
   3309 H          27.5539   18.5229   15.4813 H      40  UNL40       0.0000
   3310 N          28.0471   17.5742   13.6630 N.pl3  40  UNL40       0.0000
   3311 C          30.9464   18.4525   10.3183 C.3    40  UNL40       0.0000
   3312 H          31.3612   19.0792   11.1178 H      40  UNL40       0.0000
   3313 C          27.6755   17.5096   15.0835 C.3    40  UNL40       0.0000
   3314 N          29.2294   17.4612   11.8247 N.pl3  40  UNL40       0.0000
   3315 H          26.7320   16.9624   15.1903 H      40  UNL40       0.0000
   3316 H          31.7600   18.1931    9.6240 H      40  UNL40       0.0000
   3317 C          29.2553   17.2539   13.1545 C.3    40  UNL40       0.0000
   3318 C          30.3340   17.1753   10.8797 C.3    40  UNL40       0.0000
   3319 H          29.9035   16.5352   10.1000 H      40  UNL40       0.0000
   3320 H          28.4544   16.9680   15.6322 H      40  UNL40       0.0000
   3321 H          30.1010   16.8860   13.7239 H      40  UNL40       0.0000
   3322 H          31.0683   16.5719   11.4277 H      40  UNL40       0.0000
   3323 TI         18.0452    9.9026   25.0945 Ti      1  UNL1        0.0000
   3324 TI         29.1232   12.9653   15.4838 Ti      1  UNL1        0.0000
   3325 TI         22.5901    6.5878   23.1986 Ti      1  UNL1        0.0000
   3326 TI         24.5310   16.2791   17.3754 Ti      1  UNL1        0.0000
   3327 TI         22.8584   17.1675   15.4083 Ti      1  UNL1        0.0000
   3328 TI         24.0614    5.4231   25.1678 Ti      1  UNL1        0.0000
   3329 TI         19.4924    8.6023   23.1954 Ti      1  UNL1        0.0000
   3330 TI         27.4074   14.0091   17.3325 Ti      1  UNL1        0.0000
   3331 H          24.6930    9.2706   20.7185 H       1  UNL1        0.0000
   3332 H          21.0074    3.6007   21.0042 H       1  UNL1        0.0000
   3333 H          26.1569   19.0649   19.6054 H       1  UNL1        0.0000
   3334 H          18.0577   13.9229   24.9263 H       1  UNL1        0.0000
   3335 H          28.9493    8.8353   15.7934 H       1  UNL1        0.0000
   3336 H          14.2923    8.2902   24.7455 H       1  UNL1        0.0000
   3337 H          32.7957   14.4431   15.6725 H       1  UNL1        0.0000
   3338 H          24.2927    1.2669   24.8633 H       1  UNL1        0.0000
   3339 H          18.9548   15.7837   15.6745 H       1  UNL1        0.0000
   3340 H          25.8323   11.2281   19.6329 H       1  UNL1        0.0000
   3341 H          21.0791   11.5723   21.0189 H       1  UNL1        0.0000
   3342 H          17.3411    5.8335   20.8152 H       1  UNL1        0.0000
   3343 H          23.7241   15.7439   13.4875 H       1  UNL1        0.0000
   3344 H          28.1032   14.4295   13.6583 H       1  UNL1        0.0000
   3345 H          21.4647    8.2628   24.7644 H       1  UNL1        0.0000
   3346 H          25.4629   14.5290   15.7795 H       1  UNL1        0.0000
   3347 H          24.6989    5.2428   19.7201 H       1  UNL1        0.0000
   3348 H          22.3599   17.4310   20.8760 H       1  UNL1        0.0000
   3349 H          15.0166   11.7124   22.6905 H       1  UNL1        0.0000
   3350 H          31.9595   11.0148   17.9646 H       1  UNL1        0.0000
   3351 H          17.4798   10.0633   19.5772 H       1  UNL1        0.0000
   3352 H          19.9301   19.3561   17.8953 H       1  UNL1        0.0000
   3353 H          21.0339   13.7691   20.1051 H       1  UNL1        0.0000
   3354 H          22.4472   14.5332   19.4083 H       1  UNL1        0.0000
   3355 H          22.6936   20.3852   16.1959 H       1  UNL1        0.0000
   3356 H          28.9132    6.7811   16.9930 H       1  UNL1        0.0000
   3357 H          28.4910    7.2827   23.6196 H       1  UNL1        0.0000
   3358 H          27.1398    6.4749   24.3872 H       1  UNL1        0.0000
   3359 H          31.0153   16.6169   19.9671 H       1  UNL1        0.0000
   3360 H          29.6436   15.8852   19.1583 H       1  UNL1        0.0000
   3361 H          29.1427   12.9754   22.2123 H       1  UNL1        0.0000
   3362 H          28.6471   13.2419   20.5490 H       1  UNL1        0.0000
   3363 H          28.0574    2.6568   23.1662 H       1  UNL1        0.0000
   3364 H          26.7215    3.6492   23.7272 H       1  UNL1        0.0000
   3365 C          29.7952   12.4639   18.3291 C.2     1  UNL1        0.0000
   3366 C          17.2124   10.2696   22.2755 C.3     1  UNL1        0.0000
   3367 C          24.9567    5.0044   22.3294 C.3     1  UNL1        0.0000
   3368 C          22.0713   17.7105   18.2433 C.3     1  UNL1        0.0000
   3369 C          30.6278   11.8915   19.3974 C.2     1  UNL1        0.0000
   3370 C          16.3213   10.8454   21.2312 C.ar    1  UNL1        0.0000
   3371 C          25.8072    4.3483   21.3227 C.ar    1  UNL1        0.0000
   3372 C          21.2255   18.3343   19.2997 C.ar    1  UNL1        0.0000
   3373 C          30.3273   12.0809   20.7861 C.3     1  UNL1        0.0000
   3374 C          16.6070   10.6432   19.8636 C.ar    1  UNL1        0.0000
   3375 C          26.8936    3.4845   21.6835 C.ar    1  UNL1        0.0000
   3376 C          20.1466   19.1734   18.9441 C.ar    1  UNL1        0.0000
   3377 C          21.5222   18.0827   20.6350 C.ar    1  UNL1        0.0000
   3378 C          25.5318    4.5838   19.9557 C.ar    1  UNL1        0.0000
   3379 C          31.7660   11.1381   19.0277 C.3     1  UNL1        0.0000
   3380 C          15.2091   11.5800   21.6276 C.ar    1  UNL1        0.0000
   3381 C          24.1155   12.5087   19.7200 C.ar    1  UNL1        0.0000
   3382 C          22.8144   10.3238   20.9155 C.ar    1  UNL1        0.0000
   3383 C          27.9065   17.8263   19.6256 C.2     1  UNL1        0.0000
   3384 C          19.2384    4.8060   20.9704 C.ar    1  UNL1        0.0000
   3385 C          29.0618    8.9176   13.6589 C.ar    1  UNL1        0.0000
   3386 C          22.7968   21.2802   13.7020 C.ar    1  UNL1        0.0000
   3387 C          32.7486   14.3471   13.5328 C.2     1  UNL1        0.0000
   3388 C          19.1561   15.8499   13.5218 C.ar    1  UNL1        0.0000
   3389 C          24.8380   13.5880   19.0257 C.3     1  UNL1        0.0000
   3390 C          22.1175    9.1761   21.5682 C.3     1  UNL1        0.0000
   3391 C          27.2334   16.7875   18.8375 C.2     1  UNL1        0.0000
   3392 C          19.8841    5.8973   21.7517 C.3     1  UNL1        0.0000
   3393 C          29.1154   10.4065   13.6621 C.3     1  UNL1        0.0000
   3394 C          22.7784   19.8124   13.6559 C.3     1  UNL1        0.0000
   3395 C          31.4596   13.6380   13.5576 C.2     1  UNL1        0.0000
   3396 C          20.4543   16.5855   13.5584 C.3     1  UNL1        0.0000
   3397 C          22.7457   12.6365   20.1204 C.ar    1  UNL1        0.0000
   3398 C          24.1708   10.2064   20.5427 C.ar    1  UNL1        0.0000
   3399 C          27.1864   18.9996   19.9490 C.3     1  UNL1        0.0000
   3400 C          19.9744    3.6659   20.6673 C.ar    1  UNL1        0.0000
   3401 C          28.9715    8.2509   14.8755 C.ar    1  UNL1        0.0000
   3402 C          18.0324   14.5085   25.8422 C.ar    1  UNL1        0.0000
   3403 C          33.3268   14.7248   14.7665 C.3     1  UNL1        0.0000
   3404 C          13.7600    8.0113   25.6533 C.ar    1  UNL1        0.0000
   3405 C          29.2687   17.6928   20.0492 C.3     1  UNL1        0.0000
   3406 C          17.8930    4.9326   20.5631 C.ar    1  UNL1        0.0000
   3407 C          24.7942   11.2898   19.9505 C.ar    1  UNL1        0.0000
   3408 C          22.1210   11.5117   20.7094 C.ar    1  UNL1        0.0000
   3409 C          28.5540    7.2169   25.6711 C.3     1  UNL1        0.0000
   3410 C          18.5106   15.4957   14.7263 C.ar    1  UNL1        0.0000
   3411 C          24.2280    0.7242   25.8020 C.ar    1  UNL1        0.0000
   3412 C          22.7570   22.0055   14.9372 C.ar    1  UNL1        0.0000
   3413 N          22.0388   13.8018   19.9887 N.pl3   1  UNL1        0.0000
   3414 N          22.6235   21.3998   16.1541 N.pl3   1  UNL1        0.0000
   3415 N          28.0859    6.8482   24.4390 N.3     1  UNL1        0.0000
   3416 N          30.0159   16.5715   19.8127 N.3     1  UNL1        0.0000
   3417 N          29.2253   12.7534   21.2287 N.3     1  UNL1        0.0000
   3418 N          27.2056    3.1677   22.9735 N.pl3   1  UNL1        0.0000
   3419 O          28.7757   13.1862   18.6541 O.2     1  UNL1        0.0000
   3420 O          18.1582    9.4923   21.9039 O.3     1  UNL1        0.0000
   3421 O          25.2300    4.8210   23.5804 O.3     1  UNL1        0.0000
   3422 O          21.7403   17.8787   17.0214 O.3     1  UNL1        0.0000
   3423 O          23.0950   17.0303   18.6226 O.3     1  UNL1        0.0000
   3424 O          23.9818    5.7457   21.9449 O.3     1  UNL1        0.0000
   3425 O          30.1116   12.2338   17.1028 O.2     1  UNL1        0.0000
   3426 O          16.9830   10.5862   23.4984 O.3     1  UNL1        0.0000
   3427 O          27.4403   12.5566   16.3049 O.3     1  UNL1        0.0000
   3428 O          19.6327   10.1464   24.1904 O.3     1  UNL1        0.0000
   3429 O          28.8535   14.5730   16.2380 O.3     1  UNL1        0.0000
   3430 O          18.1442    8.1980   24.3746 O.3     1  UNL1        0.0000
   3431 O          22.5840    5.0148   24.1973 O.3     1  UNL1        0.0000
   3432 O          24.3864   17.7463   16.3340 O.3     1  UNL1        0.0000
   3433 O          23.8206    7.1261   24.4505 O.3     1  UNL1        0.0000
   3434 O          23.2296   15.5786   16.1762 O.3     1  UNL1        0.0000
   3435 O          26.0816   13.3999   18.7357 O.3     1  UNL1        0.0000
   3436 O          20.8579    9.2560   21.7555 O.3     1  UNL1        0.0000
   3437 O          27.8624   15.7279   18.5111 O.2     1  UNL1        0.0000
   3438 O          19.1561    6.8699   22.1393 O.3     1  UNL1        0.0000
   3439 O          24.2417    3.5296   25.8916 O.3     1  UNL1        0.0000
   3440 O          22.6840   19.1452   14.7440 O.3     1  UNL1        0.0000
   3441 O          26.0371    5.8528   25.8093 O.2     1  UNL1        0.0000
   3442 O          20.9911   16.7507   14.7127 O.3     1  UNL1        0.0000
   3443 O          26.0041   16.9835   18.4839 O.2     1  UNL1        0.0000
   3444 O          21.1314    5.8028   22.0029 O.3     1  UNL1        0.0000
   3445 O          24.2155   14.6663   18.7232 O.3     1  UNL1        0.0000
   3446 O          22.8377    8.1740   21.9105 O.3     1  UNL1        0.0000
   3447 O          30.9397   13.3522   14.7021 O.2     1  UNL1        0.0000
   3448 O          16.1027    9.5138   25.8250 O.3     1  UNL1        0.0000
   3449 O          29.1693   11.0072   14.7800 O.3     1  UNL1        0.0000
   3450 O          18.0164   11.7496   25.8724 O.3     1  UNL1        0.0000
   3451 O          25.9148   15.0529   16.4655 O.3     1  UNL1        0.0000
   3452 O          21.0933    7.6877   24.0714 O.3     1  UNL1        0.0000
   3453 O          28.3312   13.4826   13.6509 O.3     1  UNL1        0.0000
   3454 O          23.5548   16.7004   13.5661 O.3     1  UNL1        0.0000
   3455 H          21.3489   10.8367   26.1325 H      41  UNL41       0.0000
   3456 H          22.8580   10.6968   23.8158 H      41  UNL41       0.0000
   3457 C          22.3759   10.5222   25.9856 C.2    41  UNL41       0.0000
   3458 H          25.3546   11.5579   23.1135 H      41  UNL41       0.0000
   3459 C          23.1208   10.4499   24.8365 C.2    41  UNL41       0.0000
   3460 H          22.6984   11.0431   28.8423 H      41  UNL41       0.0000
   3461 N          23.1916   10.0945   27.0240 N.pl3  41  UNL41       0.0000
   3462 C          26.0909   10.9728   23.6793 C.3    41  UNL41       0.0000
   3463 H          26.5057   11.5995   24.4788 H      41  UNL41       0.0000
   3464 C          22.8200   10.0299   28.4445 C.3    41  UNL41       0.0000
   3465 N          24.3739    9.9815   25.1857 N.pl3  41  UNL41       0.0000
   3466 H          21.8764    9.4827   28.5513 H      41  UNL41       0.0000
   3467 H          26.9045   10.7133   22.9850 H      41  UNL41       0.0000
   3468 C          24.3998    9.7742   26.5155 C.3    41  UNL41       0.0000
   3469 C          25.4785    9.6955   24.2407 C.3    41  UNL41       0.0000
   3470 H          25.0480    9.0555   23.4610 H      41  UNL41       0.0000
   3471 H          23.5989    9.4883   28.9932 H      41  UNL41       0.0000
   3472 H          25.2455    9.4063   27.0849 H      41  UNL41       0.0000
   3473 H          26.2128    9.0922   24.7887 H      41  UNL41       0.0000
   3474 TI         13.1897    2.4229   38.4555 Ti      1  UNL1        0.0000
   3475 TI         24.2677    5.4856   28.8448 Ti      1  UNL1        0.0000
   3476 TI         17.7346   -0.8919   36.5596 Ti      1  UNL1        0.0000
   3477 TI         19.6755    8.7994   30.7364 Ti      1  UNL1        0.0000
   3478 TI         18.0029    9.6878   28.7693 Ti      1  UNL1        0.0000
   3479 TI         19.2058   -2.0566   38.5288 Ti      1  UNL1        0.0000
   3480 TI         14.6369    1.1225   36.5564 Ti      1  UNL1        0.0000
   3481 TI         22.5519    6.5293   30.6935 Ti      1  UNL1        0.0000
   3482 H          19.8375    1.7909   34.0795 H       1  UNL1        0.0000
   3483 H          16.1519   -3.8790   34.3652 H       1  UNL1        0.0000
   3484 H          21.3014   11.5852   32.9664 H       1  UNL1        0.0000
   3485 H          13.2022    6.4431   38.2873 H      21  UNL21       0.0000
   3486 H          24.0938    1.3555   29.1544 H       1  UNL1        0.0000
   3487 H           9.4368    0.8104   38.1065 H      15  UNL15       0.0000
   3488 H          27.9402    6.9634   29.0335 H       1  UNL1        0.0000
   3489 H          19.4372   -6.2128   38.2243 H      18  UNL18       0.0000
   3490 H          14.0993    8.3039   29.0355 H       1  UNL1        0.0000
   3491 H          20.9768    3.7484   32.9939 H       1  UNL1        0.0000
   3492 H          16.2236    4.0926   34.3799 H       1  UNL1        0.0000
   3493 H          12.4856   -1.6463   34.1762 H       1  UNL1        0.0000
   3494 H          18.8685    8.2642   26.8485 H       1  UNL1        0.0000
   3495 H          23.2476    6.9498   27.0193 H       1  UNL1        0.0000
   3496 H          16.6092    0.7831   38.1254 H       1  UNL1        0.0000
   3497 H          20.6073    7.0493   29.1405 H       1  UNL1        0.0000
   3498 H          19.8434   -2.2370   33.0811 H       1  UNL1        0.0000
   3499 H          17.5043    9.9512   34.2370 H       1  UNL1        0.0000
   3500 H          10.1611    4.2327   36.0515 H       1  UNL1        0.0000
   3501 H          27.1040    3.5350   31.3256 H       1  UNL1        0.0000
   3502 H          12.6242    2.5836   32.9382 H       1  UNL1        0.0000
   3503 H          15.0745   11.8763   31.2563 H       1  UNL1        0.0000
   3504 H          16.1783    6.2893   33.4661 H       1  UNL1        0.0000
   3505 H          17.5917    7.0535   32.7693 H       1  UNL1        0.0000
   3506 H          17.8381   12.9055   29.5569 H       1  UNL1        0.0000
   3507 H          24.0577   -0.6986   30.3540 H       1  UNL1        0.0000
   3508 H          23.6355   -0.1970   36.9806 H      22  UNL22       0.0000
   3509 H          22.2842   -1.0048   37.7482 H      22  UNL22       0.0000
   3510 H          26.1597    9.1371   33.3281 H       1  UNL1        0.0000
   3511 H          24.7881    8.4055   32.5193 H       1  UNL1        0.0000
   3512 H          24.2872    5.4957   35.5733 H       1  UNL1        0.0000
   3513 H          23.7916    5.7622   33.9100 H       1  UNL1        0.0000
   3514 H          23.2018   -4.8230   36.5272 H       1  UNL1        0.0000
   3515 H          21.8660   -3.8306   37.0882 H       1  UNL1        0.0000
   3516 C          24.9397    4.9842   31.6901 C.2     1  UNL1        0.0000
   3517 C          12.3568    2.7898   35.6365 C.3     1  UNL1        0.0000
   3518 C          20.1012   -2.4754   35.6904 C.3     1  UNL1        0.0000
   3519 C          17.2158   10.2308   31.6043 C.3     1  UNL1        0.0000
   3520 C          25.7723    4.4117   32.7584 C.2     1  UNL1        0.0000
   3521 C          11.4658    3.3657   34.5922 C.ar    1  UNL1        0.0000
   3522 C          20.9517   -3.1314   34.6837 C.ar    1  UNL1        0.0000
   3523 C          16.3699   10.8546   32.6607 C.ar    1  UNL1        0.0000
   3524 C          25.4718    4.6011   34.1471 C.3     1  UNL1        0.0000
   3525 C          11.7515    3.1635   33.2246 C.ar    1  UNL1        0.0000
   3526 C          22.0380   -3.9953   35.0445 C.ar    1  UNL1        0.0000
   3527 C          15.2910   11.6936   32.3051 C.ar    1  UNL1        0.0000
   3528 C          16.6667   10.6030   33.9960 C.ar    1  UNL1        0.0000
   3529 C          20.6763   -2.8959   33.3167 C.ar    1  UNL1        0.0000
   3530 C          26.9105    3.6583   32.3887 C.3     1  UNL1        0.0000
   3531 C          10.3535    4.1003   34.9886 C.ar    1  UNL1        0.0000
   3532 C          19.2600    5.0290   33.0810 C.ar    1  UNL1        0.0000
   3533 C          17.9589    2.8440   34.2765 C.ar    1  UNL1        0.0000
   3534 C          23.0509   10.3466   32.9866 C.2     1  UNL1        0.0000
   3535 C          14.3829   -2.6737   34.3314 C.ar    1  UNL1        0.0000
   3536 C          24.2063    1.4378   27.0199 C.ar    1  UNL1        0.0000
   3537 C          17.9413   13.8005   27.0630 C.ar    1  UNL1        0.0000
   3538 C          27.8931    6.8673   26.8938 C.2     1  UNL1        0.0000
   3539 C          14.3006    8.3702   26.8828 C.ar    1  UNL1        0.0000
   3540 C          19.9825    6.1082   32.3867 C.3     1  UNL1        0.0000
   3541 C          17.2619    1.6964   34.9292 C.3     1  UNL1        0.0000
   3542 C          22.3779    9.3078   32.1985 C.2     1  UNL1        0.0000
   3543 C          15.0285   -1.5825   35.1127 C.3     1  UNL1        0.0000
   3544 C          24.2599    2.9268   27.0231 C.3     1  UNL1        0.0000
   3545 C          17.9229   12.3327   27.0169 C.3     1  UNL1        0.0000
   3546 C          26.6041    6.1583   26.9186 C.2     1  UNL1        0.0000
   3547 C          15.5988    9.1057   26.9194 C.3     1  UNL1        0.0000
   3548 C          17.8902    5.1567   33.4814 C.ar    1  UNL1        0.0000
   3549 C          19.3152    2.7267   33.9037 C.ar    1  UNL1        0.0000
   3550 C          22.3309   11.5199   33.3100 C.3     1  UNL1        0.0000
   3551 C          15.1188   -3.8138   34.0283 C.ar    1  UNL1        0.0000
   3552 C          24.1160    0.7711   28.2365 C.ar    1  UNL1        0.0000
   3553 C          13.1769    7.0288   39.2032 C.2    21  UNL21       0.0000
   3554 C          28.4713    7.2450   28.1275 C.3     1  UNL1        0.0000
   3555 C           8.9045    0.5316   39.0143 C.2    15  UNL15       0.0000
   3556 C          24.4132   10.2130   33.4102 C.3     1  UNL1        0.0000
   3557 C          13.0375   -2.5471   33.9241 C.ar    1  UNL1        0.0000
   3558 C          19.9386    3.8100   33.3115 C.ar    1  UNL1        0.0000
   3559 C          17.2655    4.0320   34.0704 C.ar    1  UNL1        0.0000
   3560 C          23.6985   -0.2628   39.0321 C.3    22  UNL22       0.0000
   3561 C          13.6551    8.0160   28.0873 C.ar    1  UNL1        0.0000
   3562 C          19.3725   -6.7555   39.1630 C.2    18  UNL18       0.0000
   3563 C          17.9015   14.5257   28.2982 C.ar    1  UNL1        0.0000
   3564 N          17.1833    6.3221   33.3497 N.pl3   1  UNL1        0.0000
   3565 N          17.7679   13.9201   29.5151 N.pl3   1  UNL1        0.0000
   3566 N          23.2303   -0.6315   37.8000 N.3    22  UNL22       0.0000
   3567 N          25.1604    9.0918   33.1737 N.3     1  UNL1        0.0000
   3568 N          24.3698    5.2736   34.5897 N.3     1  UNL1        0.0000
   3569 N          22.3501   -4.3120   36.3345 N.pl3   1  UNL1        0.0000
   3570 O          23.9201    5.7065   32.0150 O.2     1  UNL1        0.0000
   3571 O          13.3027    2.0125   35.2649 O.3     1  UNL1        0.0000
   3572 O          20.3745   -2.6587   36.9414 O.3     1  UNL1        0.0000
   3573 O          16.8848   10.3990   30.3824 O.3     1  UNL1        0.0000
   3574 O          18.2395    9.5505   31.9836 O.3     1  UNL1        0.0000
   3575 O          19.1263   -1.7341   35.3059 O.3     1  UNL1        0.0000
   3576 O          25.2561    4.7541   30.4638 O.2     1  UNL1        0.0000
   3577 O          12.1275    3.1064   36.8594 O.3     1  UNL1        0.0000
   3578 O          22.5847    5.0769   29.6659 O.3     1  UNL1        0.0000
   3579 O          14.7772    2.6667   37.5514 O.3     1  UNL1        0.0000
   3580 O          23.9980    7.0932   29.5990 O.3     1  UNL1        0.0000
   3581 O          13.2887    0.7183   37.7356 O.3     1  UNL1        0.0000
   3582 O          17.7285   -2.4649   37.5583 O.3     1  UNL1        0.0000
   3583 O          19.5309   10.2666   29.6950 O.3     1  UNL1        0.0000
   3584 O          18.9651   -0.3537   37.8115 O.3     1  UNL1        0.0000
   3585 O          18.3741    8.0988   29.5372 O.3     1  UNL1        0.0000
   3586 O          21.2261    5.9201   32.0967 O.3     1  UNL1        0.0000
   3587 O          16.0024    1.7762   35.1165 O.3     1  UNL1        0.0000
   3588 O          23.0069    8.2482   31.8721 O.2     1  UNL1        0.0000
   3589 O          14.3005   -0.6099   35.5003 O.3     1  UNL1        0.0000
   3590 O          19.3862   -3.9501   39.2526 O.3     1  UNL1        0.0000
   3591 O          17.8284   11.6654   28.1050 O.3     1  UNL1        0.0000
   3592 O          21.1816   -1.6269   39.1703 O.3     1  UNL1        0.0000
   3593 O          16.1356    9.2709   28.0737 O.3     1  UNL1        0.0000
   3594 O          21.1486    9.5038   31.8449 O.2     1  UNL1        0.0000
   3595 O          16.2759   -1.6769   35.3639 O.3     1  UNL1        0.0000
   3596 O          19.3599    7.1865   32.0842 O.3     1  UNL1        0.0000
   3597 O          17.9822    0.6942   35.2715 O.3     1  UNL1        0.0000
   3598 O          26.0841    5.8725   28.0631 O.2     1  UNL1        0.0000
   3599 O          11.2472    2.0340   39.1860 O.3     1  UNL1        0.0000
   3600 O          24.3138    3.5275   28.1410 O.3     1  UNL1        0.0000
   3601 O          13.1609    4.2699   39.2334 O.3     1  UNL1        0.0000
   3602 O          21.0592    7.5732   29.8265 O.3     1  UNL1        0.0000
   3603 O          16.2377    0.2079   37.4324 O.3     1  UNL1        0.0000
   3604 O          23.4757    6.0029   27.0119 O.3     1  UNL1        0.0000
   3605 O          18.6993    9.2207   26.9271 O.3     1  UNL1        0.0000
   3606 H          16.4933    3.3570   39.4935 H      42  UNL42       0.0000
   3607 H          18.0025    3.2171   37.1768 H      42  UNL42       0.0000
   3608 C          17.5204    3.0425   39.3466 C.2    42  UNL42       0.0000
   3609 H          20.4990    4.0782   36.4745 H      42  UNL42       0.0000
   3610 C          18.2652    2.9702   38.1975 C.2    42  UNL42       0.0000
   3611 H          17.8429    3.5634   42.2033 H      42  UNL42       0.0000
   3612 N          18.3361    2.6147   40.3850 N.pl3  42  UNL42       0.0000
   3613 C          21.2354    3.4931   37.0403 C.3    42  UNL42       0.0000
   3614 H          21.6502    4.1197   37.8398 H      42  UNL42       0.0000
   3615 C          17.9644    2.5501   41.8055 C.3    42  UNL42       0.0000
   3616 N          19.5184    2.5017   38.5467 N.pl3  42  UNL42       0.0000
   3617 H          17.0209    2.0029   41.9123 H      42  UNL42       0.0000
   3618 H          22.0490    3.2336   36.3460 H      42  UNL42       0.0000
   3619 C          19.5442    2.2944   39.8765 C.3    42  UNL42       0.0000
   3620 C          20.6230    2.2158   37.6017 C.3    42  UNL42       0.0000
   3621 H          20.1925    1.5757   36.8220 H      42  UNL42       0.0000
   3622 H          18.7433    2.0086   42.3542 H      42  UNL42       0.0000
   3623 H          20.3900    1.9265   40.4459 H      42  UNL42       0.0000
   3624 H          21.3573    1.6125   38.1497 H      42  UNL42       0.0000
   3625 TI         16.7639   32.5478   11.7321 Ti      1  UNL1        0.0000
   3626 TI         27.8419   35.6105    2.1214 Ti      1  UNL1        0.0000
   3627 TI         21.3088   29.2330    9.8362 Ti      1  UNL1        0.0000
   3628 TI         23.2497   38.9243    4.0130 Ti      1  UNL1        0.0000
   3629 TI         21.5770   39.8127    2.0459 Ti      1  UNL1        0.0000
   3630 TI         22.7800   28.0683   11.8054 Ti      1  UNL1        0.0000
   3631 TI         18.2111   31.2475    9.8330 Ti      1  UNL1        0.0000
   3632 TI         26.1261   36.6543    3.9701 Ti      1  UNL1        0.0000
   3633 H          23.4117   31.9158    7.3561 H       1  UNL1        0.0000
   3634 H          19.7261   26.2459    7.6418 H       1  UNL1        0.0000
   3635 H          24.8756   41.7101    6.2430 H       1  UNL1        0.0000
   3636 H          16.7764   36.5681   11.5639 H       1  UNL1        0.0000
   3637 H          27.6680   31.4805    2.4310 H       1  UNL1        0.0000
   3638 H          13.0110   30.9354   11.3831 H       1  UNL1        0.0000
   3639 H          31.5144   37.0883    2.3101 H       1  UNL1        0.0000
   3640 H          23.0114   23.9121   11.5009 H       1  UNL1        0.0000
   3641 H          17.6735   38.4289    2.3121 H       1  UNL1        0.0000
   3642 H          24.5510   33.8733    6.2705 H       1  UNL1        0.0000
   3643 H          19.7978   34.2175    7.6564 H       1  UNL1        0.0000
   3644 H          16.0598   28.4787    7.4528 H       1  UNL1        0.0000
   3645 H          22.4427   38.3891    0.1251 H       1  UNL1        0.0000
   3646 H          26.8218   37.0747    0.2959 H       1  UNL1        0.0000
   3647 H          20.1834   30.9080   11.4020 H       1  UNL1        0.0000
   3648 H          24.1815   37.1742    2.4171 H       1  UNL1        0.0000
   3649 H          23.4176   27.8880    6.3577 H       1  UNL1        0.0000
   3650 H          21.0785   40.0762    7.5136 H       1  UNL1        0.0000
   3651 H          13.7352   34.3576    9.3281 H       1  UNL1        0.0000
   3652 H          30.6782   33.6600    4.6022 H       1  UNL1        0.0000
   3653 H          16.1984   32.7085    6.2148 H       1  UNL1        0.0000
   3654 H          18.6487   42.0013    4.5329 H       1  UNL1        0.0000
   3655 H          19.7525   36.4143    6.7427 H       1  UNL1        0.0000
   3656 H          21.1659   37.1784    6.0459 H       1  UNL1        0.0000
   3657 H          21.4123   43.0304    2.8335 H       1  UNL1        0.0000
   3658 H          27.6319   29.4263    3.6306 H       1  UNL1        0.0000
   3659 H          27.2097   29.9279   10.2572 H       1  UNL1        0.0000
   3660 H          25.8584   29.1201   11.0248 H       1  UNL1        0.0000
   3661 H          29.7339   39.2621    6.6047 H       1  UNL1        0.0000
   3662 H          28.3623   38.5304    5.7959 H       1  UNL1        0.0000
   3663 H          27.8614   35.6206    8.8499 H       1  UNL1        0.0000
   3664 H          27.3658   35.8871    7.1866 H       1  UNL1        0.0000
   3665 H          26.7760   25.3020    9.8037 H       1  UNL1        0.0000
   3666 H          25.4402   26.2944   10.3648 H       1  UNL1        0.0000
   3667 C          28.5139   35.1091    4.9667 C.2     1  UNL1        0.0000
   3668 C          15.9310   32.9148    8.9131 C.3     1  UNL1        0.0000
   3669 C          23.6754   27.6496    8.9670 C.3     1  UNL1        0.0000
   3670 C          20.7900   40.3557    4.8809 C.2     1  UNL1        0.0000
   3671 C          29.3465   34.5367    6.0350 C.2     1  UNL1        0.0000
   3672 C          15.0400   33.4906    7.8687 C.ar    1  UNL1        0.0000
   3673 C          24.5258   26.9935    7.9603 C.ar    1  UNL1        0.0000
   3674 C          19.9441   40.9795    5.9373 C.2     1  UNL1        0.0000
   3675 C          29.0460   34.7261    7.4237 C.3     1  UNL1        0.0000
   3676 C          15.3257   33.2884    6.5012 C.ar    1  UNL1        0.0000
   3677 C          25.6122   26.1297    8.3211 C.ar    1  UNL1        0.0000
   3678 C          18.8652   41.8186    5.5817 C.3     1  UNL1        0.0000
   3679 C          20.2409   40.7279    7.2726 C.3     1  UNL1        0.0000
   3680 C          24.2505   27.2290    6.5933 C.ar    1  UNL1        0.0000
   3681 C          30.4847   33.7833    5.6653 C.3     1  UNL1        0.0000
   3682 C          13.9277   34.2252    8.2651 C.ar    1  UNL1        0.0000
   3683 C          22.8342   35.1539    6.3576 C.ar    1  UNL1        0.0000
   3684 C          21.5331   32.9690    7.5531 C.ar    1  UNL1        0.0000
   3685 C          26.6251   40.4715    6.2632 C.2     1  UNL1        0.0000
   3686 C          17.9571   27.4512    7.6080 C.ar    1  UNL1        0.0000
   3687 C          27.7805   31.5628    0.2965 C.2     1  UNL1        0.0000
   3688 C          21.5155   43.9254    0.3395 C.2     1  UNL1        0.0000
   3689 C          31.4673   36.9923    0.1704 C.2     1  UNL1        0.0000
   3690 C          17.8748   38.4952    0.1594 C.2     1  UNL1        0.0000
   3691 C          23.5567   36.2332    5.6633 C.3     1  UNL1        0.0000
   3692 C          20.8361   31.8213    8.2058 C.3     1  UNL1        0.0000
   3693 C          25.9521   39.4327    5.4751 C.2     1  UNL1        0.0000
   3694 C          18.6027   28.5425    8.3893 C.3     1  UNL1        0.0000
   3695 C          27.8341   33.0517    0.2997 C.2     1  UNL1        0.0000
   3696 C          21.4971   42.4576    0.2935 C.2     1  UNL1        0.0000
   3697 C          30.1783   36.2832    0.1952 C.2     1  UNL1        0.0000
   3698 C          19.1730   39.2307    0.1960 C.2     1  UNL1        0.0000
   3699 C          21.4644   35.2817    6.7580 C.ar    1  UNL1        0.0000
   3700 C          22.8894   32.8516    7.1802 C.ar    1  UNL1        0.0000
   3701 C          25.9051   41.6448    6.5866 C.3     1  UNL1        0.0000
   3702 C          18.6930   26.3111    7.3049 C.ar    1  UNL1        0.0000
   3703 C          27.6902   30.8961    1.5131 C.2     1  UNL1        0.0000
   3704 C          16.7511   37.1537   12.4797 C.3     1  UNL1        0.0000
   3705 C          32.0455   37.3700    1.4041 C.3     1  UNL1        0.0000
   3706 C          12.4787   30.6565   12.2909 C.ar    1  UNL1        0.0000
   3707 C          27.9874   40.3380    6.6868 C.3     1  UNL1        0.0000
   3708 C          16.6117   27.5778    7.2006 C.ar    1  UNL1        0.0000
   3709 C          23.5128   33.9350    6.5881 C.ar    1  UNL1        0.0000
   3710 C          20.8397   34.1569    7.3470 C.ar    1  UNL1        0.0000
   3711 C          27.2727   29.8621   12.3087 C.3     1  UNL1        0.0000
   3712 C          17.2293   38.1409    1.3639 C.2     1  UNL1        0.0000
   3713 C          22.9467   23.3694   12.4396 C.ar    1  UNL1        0.0000
   3714 C          21.4757   44.6507    1.5748 C.2     1  UNL1        0.0000
   3715 N          20.7575   36.4470    6.6263 N.pl3   1  UNL1        0.0000
   3716 N          21.3421   44.0450    2.7917 N.2     1  UNL1        0.0000
   3717 N          26.8045   29.4934   11.0766 N.3     1  UNL1        0.0000
   3718 N          28.7346   39.2167    6.4503 N.3     1  UNL1        0.0000
   3719 N          27.9440   35.3986    7.8663 N.3     1  UNL1        0.0000
   3720 N          25.9243   25.8129    9.6111 N.pl3   1  UNL1        0.0000
   3721 O          27.4943   35.8314    5.2916 O.2     1  UNL1        0.0000
   3722 O          16.8769   32.1375    8.5415 O.3     1  UNL1        0.0000
   3723 O          23.9487   27.4662   10.2180 O.3     1  UNL1        0.0000
   3724 O          20.4590   40.5239    3.6590 O.2     1  UNL1        0.0000
   3725 O          21.8136   39.6755    5.2602 O.2     1  UNL1        0.0000
   3726 O          22.7005   28.3909    8.5825 O.3     1  UNL1        0.0000
   3727 O          28.8303   34.8790    3.7404 O.2     1  UNL1        0.0000
   3728 O          15.7017   33.2314   10.1360 O.3     1  UNL1        0.0000
   3729 O          26.1589   35.2018    2.9425 O.3     1  UNL1        0.0000
   3730 O          18.3514   32.7916   10.8280 O.3     1  UNL1        0.0000
   3731 O          27.5722   37.2182    2.8756 O.3     1  UNL1        0.0000
   3732 O          16.8629   30.8432   11.0122 O.3     1  UNL1        0.0000
   3733 O          21.3027   27.6600   10.8349 O.3     1  UNL1        0.0000
   3734 O          23.1051   40.3915    2.9716 O.3     1  UNL1        0.0000
   3735 O          22.5393   29.7713   11.0881 O.3     1  UNL1        0.0000
   3736 O          21.9483   38.2238    2.8138 O.3     1  UNL1        0.0000
   3737 O          24.8003   36.0451    5.3733 O.3     1  UNL1        0.0000
   3738 O          19.5766   31.9012    8.3931 O.3     1  UNL1        0.0000
   3739 O          26.5811   38.3731    5.1487 O.2     1  UNL1        0.0000
   3740 O          17.8747   29.5151    8.7769 O.3     1  UNL1        0.0000
   3741 O          22.9604   26.1748   12.5292 O.3     1  UNL1        0.0000
   3742 O          21.4026   41.7904    1.3816 O.2     1  UNL1        0.0000
   3743 O          24.7558   28.4980   12.4469 O.2     1  UNL1        0.0000
   3744 O          19.7098   39.3959    1.3503 O.2     1  UNL1        0.0000
   3745 O          24.7228   39.6287    5.1215 O.2     1  UNL1        0.0000
   3746 O          19.8501   28.4480    8.6405 O.3     1  UNL1        0.0000
   3747 O          22.9341   37.3115    5.3608 O.3     1  UNL1        0.0000
   3748 O          21.5564   30.8192    8.5481 O.3     1  UNL1        0.0000
   3749 O          29.6583   35.9974    1.3397 O.2     1  UNL1        0.0000
   3750 O          14.8214   32.1590   12.4626 O.3     1  UNL1        0.0000
   3751 O          27.8879   33.6524    1.4176 O.2     1  UNL1        0.0000
   3752 O          16.7351   34.3948   12.5100 O.2     1  UNL1        0.0000
   3753 O          24.6334   37.6981    3.1031 O.3     1  UNL1        0.0000
   3754 O          19.8119   30.3329   10.7090 O.3     1  UNL1        0.0000
   3755 O          27.0499   36.1278    0.2885 O.3     1  UNL1        0.0000
   3756 O          22.2735   39.3456    0.2037 O.3     1  UNL1        0.0000
   3757 H          20.0675   33.4819   12.7701 H      43  UNL43       0.0000
   3758 H          21.5767   33.3420   10.4534 H      43  UNL43       0.0000
   3759 C          21.0946   33.1674   12.6232 C.2    43  UNL43       0.0000
   3760 H          24.0732   34.2031    9.7511 H      43  UNL43       0.0000
   3761 C          21.8394   33.0951   11.4741 C.2    43  UNL43       0.0000
   3762 H          21.4171   33.6883   15.4799 H      43  UNL43       0.0000
   3763 N          21.9103   32.7397   13.6616 N.pl3  43  UNL43       0.0000
   3764 C          24.8096   33.6180   10.3169 C.3    43  UNL43       0.0000
   3765 H          25.2243   34.2447   11.1164 H      43  UNL43       0.0000
   3766 C          21.5386   32.6751   15.0821 C.3    43  UNL43       0.0000
   3767 N          23.0926   32.6267   11.8233 N.pl3  43  UNL43       0.0000
   3768 H          20.5951   32.1279   15.1889 H      43  UNL43       0.0000
   3769 H          25.6231   33.3585    9.6226 H      43  UNL43       0.0000
   3770 C          23.1184   32.4194   13.1531 C.3    43  UNL43       0.0000
   3771 C          24.1972   32.3407   10.8783 C.3    43  UNL43       0.0000
   3772 H          23.7667   31.7007   10.0986 H      43  UNL43       0.0000
   3773 H          22.3175   32.1335   15.6308 H      43  UNL43       0.0000
   3774 H          23.9641   32.0515   13.7225 H      43  UNL43       0.0000
   3775 H          24.9315   31.7374   11.4263 H      43  UNL43       0.0000
   3776 TI         11.9084   25.0681   25.0931 Ti      1  UNL1        0.0000
   3777 TI         22.9864   28.1308   15.4824 Ti      1  UNL1        0.0000
   3778 TI         16.4533   21.7533   23.1972 Ti      1  UNL1        0.0000
   3779 TI         18.3941   31.4446   17.3740 Ti      1  UNL1        0.0000
   3780 TI         16.7215   32.3330   15.4069 Ti      1  UNL1        0.0000
   3781 TI         17.9245   20.5886   25.1664 Ti      1  UNL1        0.0000
   3782 TI         13.3556   23.7677   23.1940 Ti      1  UNL1        0.0000
   3783 TI         21.2705   29.1745   17.3311 Ti      1  UNL1        0.0000
   3784 H          18.5562   24.4361   20.7171 H       1  UNL1        0.0000
   3785 H          14.8706   18.7662   21.0028 H       1  UNL1        0.0000
   3786 H          20.0200   34.2304   19.6040 H       1  UNL1        0.0000
   3787 H          11.9208   29.0883   24.9249 H       1  UNL1        0.0000
   3788 H          22.8125   24.0007   15.7920 H       1  UNL1        0.0000
   3789 H           8.1554   23.4556   24.7441 H       1  UNL1        0.0000
   3790 H          26.6589   29.6086   15.6711 H       1  UNL1        0.0000
   3791 H          18.1558   16.4324   24.8619 H       1  UNL1        0.0000
   3792 H          12.8179   30.9491   15.6731 H       1  UNL1        0.0000
   3793 H          19.6955   26.3936   19.6315 H       1  UNL1        0.0000
   3794 H          14.9422   26.7378   21.0174 H       1  UNL1        0.0000
   3795 H          11.2042   20.9989   20.8137 H       1  UNL1        0.0000
   3796 H          17.5872   30.9094   13.4861 H       1  UNL1        0.0000
   3797 H          21.9663   29.5950   13.6569 H       1  UNL1        0.0000
   3798 H          15.3278   23.4283   24.7630 H       1  UNL1        0.0000
   3799 H          19.3260   29.6945   15.7781 H       1  UNL1        0.0000
   3800 H          18.5621   20.4082   19.7187 H       1  UNL1        0.0000
   3801 H          16.2230   32.5964   20.8746 H       1  UNL1        0.0000
   3802 H           8.8797   26.8779   22.6891 H       1  UNL1        0.0000
   3803 H          25.8227   26.1802   17.9632 H       1  UNL1        0.0000
   3804 H          11.3429   25.2288   19.5758 H       1  UNL1        0.0000
   3805 H          13.7932   34.5215   17.8939 H       1  UNL1        0.0000
   3806 H          14.8970   28.9345   20.1037 H       1  UNL1        0.0000
   3807 H          16.3104   29.6987   19.4069 H       1  UNL1        0.0000
   3808 H          16.5567   35.5507   16.1945 H       1  UNL1        0.0000
   3809 H          22.7763   21.9466   16.9915 H       1  UNL1        0.0000
   3810 H          22.3541   22.4482   23.6182 H       1  UNL1        0.0000
   3811 H          21.0029   21.6404   24.3858 H       1  UNL1        0.0000
   3812 H          24.8784   31.7823   19.9657 H       1  UNL1        0.0000
   3813 H          23.5068   31.0507   19.1569 H       1  UNL1        0.0000
   3814 H          23.0058   28.1409   22.2109 H       1  UNL1        0.0000
   3815 H          22.5102   28.4074   20.5476 H       1  UNL1        0.0000
   3816 H          21.9205   17.8222   23.1647 H       1  UNL1        0.0000
   3817 H          20.5847   18.8146   23.7258 H       1  UNL1        0.0000
   3818 C          23.6584   27.6294   18.3277 C.2     1  UNL1        0.0000
   3819 C          11.0755   25.4350   22.2741 C.3     1  UNL1        0.0000
   3820 C          18.8199   20.1698   22.3280 C.3     1  UNL1        0.0000
   3821 C          15.9345   32.8760   18.2419 C.2     1  UNL1        0.0000
   3822 C          24.4910   27.0569   19.3960 C.2     1  UNL1        0.0000
   3823 C          10.1844   26.0109   21.2297 C.ar    1  UNL1        0.0000
   3824 C          19.6703   19.5138   21.3213 C.ar    1  UNL1        0.0000
   3825 C          15.0886   33.4998   19.2983 C.2     1  UNL1        0.0000
   3826 C          24.1905   27.2463   20.7847 C.3     1  UNL1        0.0000
   3827 C          10.4702   25.8087   19.8622 C.ar    1  UNL1        0.0000
   3828 C          20.7567   18.6499   21.6821 C.ar    1  UNL1        0.0000
   3829 C          14.0097   34.3388   18.9427 C.3     1  UNL1        0.0000
   3830 C          15.3853   33.2482   20.6336 C.3     1  UNL1        0.0000
   3831 C          19.3950   19.7493   19.9543 C.ar    1  UNL1        0.0000
   3832 C          25.6291   26.3035   19.0263 C.3     1  UNL1        0.0000
   3833 C           9.0722   26.7455   21.6261 C.ar    1  UNL1        0.0000
   3834 C          17.9786   27.6742   19.7186 C.ar    1  UNL1        0.0000
   3835 C          16.6776   25.4892   20.9141 C.ar    1  UNL1        0.0000
   3836 C          21.7696   32.9918   19.6242 C.2     1  UNL1        0.0000
   3837 C          13.1016   19.9715   20.9690 C.ar    1  UNL1        0.0000
   3838 C          22.9249   24.0830   13.6575 C.ar    1  UNL1        0.0000
   3839 C          16.6600   36.4457   13.7005 C.2     1  UNL1        0.0000
   3840 C          26.6117   29.5125   13.5314 C.2     1  UNL1        0.0000
   3841 C          13.0193   31.0154   13.5204 C.ar    1  UNL1        0.0000
   3842 C          18.7011   28.7534   19.0243 C.3     1  UNL1        0.0000
   3843 C          15.9806   24.3416   21.5668 C.3     1  UNL1        0.0000
   3844 C          21.0966   31.9530   18.8361 C.2     1  UNL1        0.0000
   3845 C          13.7472   21.0627   21.7503 C.3     1  UNL1        0.0000
   3846 C          22.9786   25.5720   13.6607 C.3     1  UNL1        0.0000
   3847 C          16.6415   34.9779   13.6545 C.2     1  UNL1        0.0000
   3848 C          25.3227   28.8035   13.5562 C.2     1  UNL1        0.0000
   3849 C          14.3175   31.7509   13.5570 C.3     1  UNL1        0.0000
   3850 C          16.6089   27.8019   20.1190 C.ar    1  UNL1        0.0000
   3851 C          18.0339   25.3719   20.5412 C.ar    1  UNL1        0.0000
   3852 C          21.0496   34.1651   19.9476 C.3     1  UNL1        0.0000
   3853 C          13.8375   18.8314   20.6659 C.ar    1  UNL1        0.0000
   3854 C          22.8346   23.4163   14.8741 C.ar    1  UNL1        0.0000
   3855 C          11.8956   29.6740   25.8407 C.3     1  UNL1        0.0000
   3856 C          27.1900   29.8902   14.7651 C.3     1  UNL1        0.0000
   3857 C           7.6231   23.1768   25.6519 C.ar    1  UNL1        0.0000
   3858 C          23.1319   32.8582   20.0478 C.3     1  UNL1        0.0000
   3859 C          11.7562   20.0981   20.5616 C.ar    1  UNL1        0.0000
   3860 C          18.6573   26.4552   19.9491 C.ar    1  UNL1        0.0000
   3861 C          15.9841   26.6772   20.7080 C.ar    1  UNL1        0.0000
   3862 C          22.4171   22.3824   25.6697 C.3     1  UNL1        0.0000
   3863 C          12.3738   30.6612   14.7249 C.ar    1  UNL1        0.0000
   3864 C          18.0912   15.8897   25.8006 C.ar    1  UNL1        0.0000
   3865 C          16.6202   37.1709   14.9358 C.2     1  UNL1        0.0000
   3866 N          15.9020   28.9673   19.9873 N.pl3   1  UNL1        0.0000
   3867 N          16.4866   36.5653   16.1527 N.2     1  UNL1        0.0000
   3868 N          21.9490   22.0137   24.4376 N.3     1  UNL1        0.0000
   3869 N          23.8791   31.7370   19.8113 N.3     1  UNL1        0.0000
   3870 N          23.0885   27.9188   21.2273 N.3     1  UNL1        0.0000
   3871 N          21.0688   18.3332   22.9721 N.pl3   1  UNL1        0.0000
   3872 O          22.6388   28.3517   18.6526 O.2     1  UNL1        0.0000
   3873 O          12.0214   24.6577   21.9025 O.3     1  UNL1        0.0000
   3874 O          19.0931   19.9865   23.5790 O.3     1  UNL1        0.0000
   3875 O          15.6035   33.0442   17.0200 O.2     1  UNL1        0.0000
   3876 O          16.9581   32.1957   18.6212 O.2     1  UNL1        0.0000
   3877 O          17.8450   20.9111   21.9435 O.3     1  UNL1        0.0000
   3878 O          23.9747   27.3993   17.1014 O.2     1  UNL1        0.0000
   3879 O          10.8462   25.7517   23.4970 O.3     1  UNL1        0.0000
   3880 O          21.3034   27.7221   16.3035 O.3     1  UNL1        0.0000
   3881 O          13.4958   25.3119   24.1890 O.3     1  UNL1        0.0000
   3882 O          22.7167   29.7384   16.2366 O.3     1  UNL1        0.0000
   3883 O          12.0073   23.3635   24.3732 O.3     1  UNL1        0.0000
   3884 O          16.4472   20.1803   24.1959 O.3     1  UNL1        0.0000
   3885 O          18.2495   32.9118   16.3326 O.3     1  UNL1        0.0000
   3886 O          17.6837   22.2915   24.4491 O.3     1  UNL1        0.0000
   3887 O          17.0928   30.7440   16.1748 O.3     1  UNL1        0.0000
   3888 O          19.9447   28.5653   18.7343 O.3     1  UNL1        0.0000
   3889 O          14.7211   24.4214   21.7541 O.3     1  UNL1        0.0000
   3890 O          21.7256   30.8934   18.5096 O.2     1  UNL1        0.0000
   3891 O          13.0192   22.0353   22.1379 O.3     1  UNL1        0.0000
   3892 O          18.1049   18.6951   25.8902 O.3     1  UNL1        0.0000
   3893 O          16.5471   34.3106   14.7426 O.2     1  UNL1        0.0000
   3894 O          19.9003   21.0183   25.8079 O.2     1  UNL1        0.0000
   3895 O          14.8543   31.9161   14.7113 O.3     1  UNL1        0.0000
   3896 O          19.8673   32.1490   18.4825 O.2     1  UNL1        0.0000
   3897 O          14.9945   20.9683   22.0015 O.3     1  UNL1        0.0000
   3898 O          18.0786   29.8317   18.7217 O.3     1  UNL1        0.0000
   3899 O          16.7009   23.3394   21.9091 O.3     1  UNL1        0.0000
   3900 O          24.8028   28.5177   14.7006 O.2     1  UNL1        0.0000
   3901 O           9.9658   24.6792   25.8236 O.3     1  UNL1        0.0000
   3902 O          23.0324   26.1727   14.7786 O.3     1  UNL1        0.0000
   3903 O          11.8795   26.9151   25.8710 O.2     1  UNL1        0.0000
   3904 O          19.7779   30.2184   16.4641 O.3     1  UNL1        0.0000
   3905 O          14.9564   22.8531   24.0700 O.3     1  UNL1        0.0000
   3906 O          22.1944   28.6481   13.6495 O.3     1  UNL1        0.0000
   3907 O          17.4179   31.8659   13.5647 O.3     1  UNL1        0.0000
   3908 H          15.2120   26.0022   26.1311 H      44  UNL44       0.0000
   3909 H          16.7211   25.8623   23.8144 H      44  UNL44       0.0000
   3910 C          16.2391   25.6877   25.9842 C.2    44  UNL44       0.0000
   3911 H          19.2177   26.7234   23.1121 H      44  UNL44       0.0000
   3912 C          16.9839   25.6154   24.8351 C.2    44  UNL44       0.0000
   3913 H          16.5615   26.2086   28.8409 H      44  UNL44       0.0000
   3914 N          17.0547   25.2599   27.0226 N.pl3  44  UNL44       0.0000
   3915 C          19.9540   26.1383   23.6779 C.3    44  UNL44       0.0000
   3916 H          20.3688   26.7649   24.4774 H      44  UNL44       0.0000
   3917 C          16.6831   25.1953   28.4431 C.3    44  UNL44       0.0000
   3918 N          18.2371   25.1469   25.1843 N.pl3  44  UNL44       0.0000
   3919 H          15.7396   24.6481   28.5499 H      44  UNL44       0.0000
   3920 H          20.7676   25.8788   22.9836 H      44  UNL44       0.0000
   3921 C          18.2629   24.9396   26.5141 C.3    44  UNL44       0.0000
   3922 C          19.3416   24.8610   24.2393 C.3    44  UNL44       0.0000
   3923 H          18.9112   24.2210   23.4596 H      44  UNL44       0.0000
   3924 H          17.4620   24.6538   28.9918 H      44  UNL44       0.0000
   3925 H          19.1086   24.5718   27.0835 H      44  UNL44       0.0000
   3926 H          20.0759   24.2577   24.7873 H      44  UNL44       0.0000
   3927 TI          7.0529   17.5883   38.4541 Ti      1  UNL1        0.0000
   3928 TI         18.1308   20.6511   28.8434 Ti      1  UNL1        0.0000
   3929 TI         11.5977   14.2735   36.5582 Ti      1  UNL1        0.0000
   3930 TI         13.5386   23.9648   30.7350 Ti      1  UNL1        0.0000
   3931 TI         11.8660   24.8533   28.7679 Ti      1  UNL1        0.0000
   3932 TI         13.0690   13.1088   38.5274 Ti      1  UNL1        0.0000
   3933 TI          8.5001   16.2880   36.5550 Ti      1  UNL1        0.0000
   3934 TI         16.4150   21.6948   30.6921 Ti      1  UNL1        0.0000
   3935 H          13.7006   16.9563   34.0781 H       1  UNL1        0.0000
   3936 H          10.0151   11.2865   34.3638 H       1  UNL1        0.0000
   3937 H          15.1645   26.7507   32.9650 H       1  UNL1        0.0000
   3938 H           7.0653   21.6086   38.2859 H      45  UNL45       0.0000
   3939 H          17.9569   16.5210   29.1530 H       1  UNL1        0.0000
   3940 H           3.2999   15.9759   38.1051 H      17  UNL17       0.0000
   3941 H          21.8033   22.1289   29.0321 H       1  UNL1        0.0000
   3942 H          13.3003    8.9526   38.2229 H      21  UNL21       0.0000
   3943 H           7.9624   23.4694   29.0341 H       1  UNL1        0.0000
   3944 H          14.8399   18.9139   32.9925 H       1  UNL1        0.0000
   3945 H          10.0867   19.2580   34.3784 H       1  UNL1        0.0000
   3946 H           6.3487   13.5192   34.1747 H       1  UNL1        0.0000
   3947 H          12.7317   23.4296   26.8471 H       1  UNL1        0.0000
   3948 H          17.1108   22.1153   27.0179 H       1  UNL1        0.0000
   3949 H          10.4723   15.9485   38.1240 H       1  UNL1        0.0000
   3950 H          14.4705   22.2147   29.1391 H       1  UNL1        0.0000
   3951 H          13.7065   12.9285   33.0797 H       1  UNL1        0.0000
   3952 H          11.3675   25.1167   34.2356 H       1  UNL1        0.0000
   3953 H           4.0242   19.3982   36.0501 H       1  UNL1        0.0000
   3954 H          20.9671   18.7005   31.3242 H       1  UNL1        0.0000
   3955 H           6.4874   17.7490   32.9368 H       1  UNL1        0.0000
   3956 H           8.9377   27.0418   31.2549 H       1  UNL1        0.0000
   3957 H          10.0415   21.4548   33.4647 H       1  UNL1        0.0000
   3958 H          11.4548   22.2189   32.7679 H       1  UNL1        0.0000
   3959 H          11.7012   28.0709   29.5555 H       1  UNL1        0.0000
   3960 H          17.9208   14.4669   30.3525 H       1  UNL1        0.0000
   3961 H          17.4986   14.9685   36.9792 H      45  UNL45       0.0000
   3962 H          16.1474   14.1606   37.7468 H      45  UNL45       0.0000
   3963 H          20.0229   24.3026   33.3267 H       1  UNL1        0.0000
   3964 H          18.6512   23.5710   32.5179 H       1  UNL1        0.0000
   3965 H          18.1503   20.6611   35.5719 H       1  UNL1        0.0000
   3966 H          17.6547   20.9277   33.9086 H       1  UNL1        0.0000
   3967 H          17.0650   10.3425   36.5257 H       1  UNL1        0.0000
   3968 H          15.7291   11.3349   37.0868 H       1  UNL1        0.0000
   3969 C          18.8028   20.1496   31.6887 C.2     1  UNL1        0.0000
   3970 C           6.2200   17.9553   35.6351 C.3     1  UNL1        0.0000
   3971 C          13.9643   12.6901   35.6890 C.3     1  UNL1        0.0000
   3972 C          11.0789   25.3962   31.6029 C.2     1  UNL1        0.0000
   3973 C          19.6354   19.5772   32.7570 C.2     1  UNL1        0.0000
   3974 C           5.3289   18.5311   34.5907 C.ar    1  UNL1        0.0000
   3975 C          14.8148   12.0341   34.6823 C.ar    1  UNL1        0.0000
   3976 C          10.2331   26.0200   32.6593 C.2     1  UNL1        0.0000
   3977 C          19.3349   19.7666   34.1457 C.3     1  UNL1        0.0000
   3978 C           5.6147   18.3289   33.2232 C.ar    1  UNL1        0.0000
   3979 C          15.9012   11.1702   35.0431 C.ar    1  UNL1        0.0000
   3980 C           9.1542   26.8591   32.3037 C.3     1  UNL1        0.0000
   3981 C          10.5298   25.7684   33.9945 C.3     1  UNL1        0.0000
   3982 C          14.5394   12.2695   33.3153 C.ar    1  UNL1        0.0000
   3983 C          20.7736   18.8238   32.3873 C.3     1  UNL1        0.0000
   3984 C           4.2167   19.2657   34.9871 C.ar    1  UNL1        0.0000
   3985 C          13.1231   20.1944   33.0796 C.ar    1  UNL1        0.0000
   3986 C          11.8220   18.0095   34.2751 C.ar    1  UNL1        0.0000
   3987 C          16.9141   25.5121   32.9852 C.2     1  UNL1        0.0000
   3988 C           8.2461   12.4917   34.3300 C.ar    1  UNL1        0.0000
   3989 C          18.0694   16.6033   27.0185 C.ar    1  UNL1        0.0000
   3990 C          11.8044   28.9659   27.0615 C.2     1  UNL1        0.0000
   3991 C          21.7562   22.0328   26.8924 C.2     1  UNL1        0.0000
   3992 C           8.1637   23.5357   26.8814 C.ar    1  UNL1        0.0000
   3993 C          13.8456   21.2737   32.3853 C.3     1  UNL1        0.0000
   3994 C          11.1251   16.8618   34.9278 C.3     1  UNL1        0.0000
   3995 C          16.2410   24.4732   32.1971 C.2     1  UNL1        0.0000
   3996 C           8.8917   13.5830   35.1113 C.3     1  UNL1        0.0000
   3997 C          18.1230   18.0923   27.0217 C.3     1  UNL1        0.0000
   3998 C          11.7860   27.4981   27.0155 C.2     1  UNL1        0.0000
   3999 C          20.4672   21.3237   26.9172 C.2     1  UNL1        0.0000
   4000 C           9.4620   24.2712   26.9179 C.3     1  UNL1        0.0000
   4001 C          11.7533   20.3222   33.4800 C.ar    1  UNL1        0.0000
   4002 C          13.1784   17.8921   33.9022 C.ar    1  UNL1        0.0000
   4003 C          16.1941   26.6853   33.3086 C.3     1  UNL1        0.0000
   4004 C           8.9820   11.3516   34.0269 C.ar    1  UNL1        0.0000
   4005 C          17.9791   15.9366   28.2351 C.ar    1  UNL1        0.0000
   4006 C           7.0400   22.1943   39.2017 C.3    46  UNL46       0.0000
   4007 C          22.3344   22.4105   28.1261 C.3     1  UNL1        0.0000
   4008 C           2.7676   15.6970   39.0129 C.2    17  UNL17       0.0000
   4009 C          18.2764   25.3785   33.4088 C.3     1  UNL1        0.0000
   4010 C           6.9006   12.6183   33.9226 C.ar    1  UNL1        0.0000
   4011 C          13.8018   18.9755   33.3101 C.ar    1  UNL1        0.0000
   4012 C          11.1286   19.1975   34.0690 C.ar    1  UNL1        0.0000
   4013 C          17.5616   14.9026   39.0307 C.3    45  UNL45       0.0000
   4014 C           7.5182   23.1815   28.0858 C.ar    1  UNL1        0.0000
   4015 C          13.2356    8.4099   39.1616 C.2    21  UNL21       0.0000
   4016 C          11.7646   29.6912   28.2968 C.2     1  UNL1        0.0000
   4017 N          11.0464   21.4876   33.3483 N.pl3   1  UNL1        0.0000
   4018 N          11.6311   29.0855   29.5137 N.2     1  UNL1        0.0000
   4019 N          17.0935   14.5339   37.7986 N.3    45  UNL45       0.0000
   4020 N          19.0235   24.2572   33.1723 N.3     1  UNL1        0.0000
   4021 N          18.2329   20.4391   34.5883 N.3     1  UNL1        0.0000
   4022 N          16.2132   10.8535   36.3331 N.pl3   1  UNL1        0.0000
   4023 O          17.7833   20.8719   32.0136 O.2     1  UNL1        0.0000
   4024 O           7.1658   17.1780   35.2635 O.3     1  UNL1        0.0000
   4025 O          14.2376   12.5067   36.9400 O.3     1  UNL1        0.0000
   4026 O          10.7479   25.5644   30.3810 O.2     1  UNL1        0.0000
   4027 O          12.1026   24.7160   31.9822 O.2     1  UNL1        0.0000
   4028 O          12.9894   13.4314   35.3045 O.3     1  UNL1        0.0000
   4029 O          19.1192   19.9196   30.4624 O.2     1  UNL1        0.0000
   4030 O           5.9907   18.2719   36.8580 O.3     1  UNL1        0.0000
   4031 O          16.4479   20.2424   29.6645 O.3     1  UNL1        0.0000
   4032 O           8.6403   17.8321   37.5500 O.3     1  UNL1        0.0000
   4033 O          17.8612   22.2587   29.5976 O.3     1  UNL1        0.0000
   4034 O           7.1518   15.8838   37.7342 O.3     1  UNL1        0.0000
   4035 O          11.5916   12.7006   37.5569 O.3     1  UNL1        0.0000
   4036 O          13.3940   25.4320   29.6936 O.3     1  UNL1        0.0000
   4037 O          12.8282   14.8118   37.8101 O.3     1  UNL1        0.0000
   4038 O          12.2372   23.2643   29.5358 O.3     1  UNL1        0.0000
   4039 O          15.0892   21.0856   32.0953 O.3     1  UNL1        0.0000
   4040 O           9.8656   16.9417   35.1151 O.3     1  UNL1        0.0000
   4041 O          16.8701   23.4137   31.8706 O.2     1  UNL1        0.0000
   4042 O           8.1637   14.5556   35.4989 O.3     1  UNL1        0.0000
   4043 O          13.2493   11.2153   39.2512 O.3     1  UNL1        0.0000
   4044 O          11.6916   26.8309   28.1036 O.2     1  UNL1        0.0000
   4045 O          15.0447   13.5385   39.1689 O.3     1  UNL1        0.0000
   4046 O           9.9987   24.4364   28.0723 O.3     1  UNL1        0.0000
   4047 O          15.0117   24.6692   31.8435 O.2     1  UNL1        0.0000
   4048 O          10.1390   13.4885   35.3625 O.3     1  UNL1        0.0000
   4049 O          13.2231   22.3520   32.0827 O.3     1  UNL1        0.0000
   4050 O          11.8453   15.8597   35.2701 O.3     1  UNL1        0.0000
   4051 O          19.9473   21.0379   28.0616 O.2     1  UNL1        0.0000
   4052 O           5.1103   17.1995   39.1846 O.3     1  UNL1        0.0000
   4053 O          18.1769   18.6929   28.1396 O.3     1  UNL1        0.0000
   4054 O           7.0240   19.4354   39.2320 O.3     1  UNL1        0.0000
   4055 O          14.9224   22.7386   29.8251 O.3     1  UNL1        0.0000
   4056 O          10.1009   15.3734   37.4310 O.3     1  UNL1        0.0000
   4057 O          17.3388   21.1683   27.0105 O.3     1  UNL1        0.0000
   4058 O          12.5624   24.3861   26.9257 O.3     1  UNL1        0.0000
   4059 H          10.3565   18.5224   39.4921 H      45  UNL45       0.0000
   4060 H          11.8656   18.3825   37.1754 H      45  UNL45       0.0000
   4061 C          11.3835   18.2080   39.3452 C.2    45  UNL45       0.0000
   4062 H          14.3622   19.2436   36.4731 H      45  UNL45       0.0000
   4063 C          12.1284   18.1356   38.1961 C.2    45  UNL45       0.0000
   4064 H          11.7060   18.7288   42.2019 H      45  UNL45       0.0000
   4065 N          12.1992   17.7802   40.3836 N.pl3  45  UNL45       0.0000
   4066 C          15.0985   18.6585   37.0389 C.3    45  UNL45       0.0000
   4067 H          15.5133   19.2852   37.8384 H      45  UNL45       0.0000
   4068 C          11.8276   17.7156   41.8041 C.3    45  UNL45       0.0000
   4069 N          13.3815   17.6672   38.5453 N.pl3  45  UNL45       0.0000
   4070 H          10.8841   17.1684   41.9109 H      45  UNL45       0.0000
   4071 H          15.9121   18.3991   36.3446 H      45  UNL45       0.0000
   4072 C          13.4074   17.4599   39.8751 C.3    45  UNL45       0.0000
   4073 C          14.4861   17.3813   37.6003 C.3    45  UNL45       0.0000
   4074 H          14.0556   16.7412   36.8206 H      45  UNL45       0.0000
   4075 H          12.6065   17.1740   42.3528 H      45  UNL45       0.0000
   4076 H          14.2531   17.0920   40.4445 H      45  UNL45       0.0000
   4077 H          15.2204   16.7779   38.1483 H      45  UNL45       0.0000
@<TRIPOS>BOND
     1   927  1038    1
     2   474   585    1
     3    21   132    1
     4   972   980    2
     5   972   994    1
     6   519   527    2
     7   519   541    1
     8    66    74    2
     9    66    88    1
    10   971   979    2
    11   971   987    1
    12   518   526    2
    13   518   534    1
    14    65    73    2
    15    65    81    1
    16   979  1031    1
    17   980  1026    1
    18   526   578    1
    19   527   573    1
    20    73   125    1
    21    74   120    1
    22  1038   911    1
    23   585   458    1
    24   132     5    1
    25  2286  2397    1
    26  1833  1944    1
    27  1380  1491    1
    28  2331  2339    2
    29  2331  2353    1
    30  1878  1886    2
    31  1878  1900    1
    32  1425  1433    2
    33  1425  1447    1
    34  2330  2338    2
    35  2330  2346    1
    36  1877  1885    2
    37  1877  1893    1
    38  1424  1432    2
    39  1424  1440    1
    40  1037   928    1
    41  1037   908    1
    42   584   475    1
    43   584   455    1
    44   131    22    1
    45   131     2    1
    46   978   970    2
    47   978  1024    1
    48   525   517    2
    49   525   571    1
    50    72    64    2
    51    72   118    1
    52   969   977    2
    53   969   985    1
    54   516   524    2
    55   516   532    1
    56    63    71    2
    57    63    79    1
    58   977  1033    1
    59  2338  2390    1
    60   524   580    1
    61  2339  2385    1
    62  1885  1937    1
    63    71   127    1
    64  1886  1932    1
    65  1432  1484    1
    66  1433  1479    1
    67  2397  2270    1
    68  1944  1817    1
    69  1491  1364    1
    70  3645  3756    1
    71  3192  3303    1
    72  2739  2850    1
    73   970   996    1
    74   517   543    1
    75    64    90    1
    76  3690  3698    2
    77  3690  3712    1
    78  3237  3245    2
    79  3237  3259    1
    80  2784  2792    2
    81  2784  2806    1
    82  3689  3697    2
    83  3689  3705    1
    84  3236  3244    2
    85  3236  3252    1
    86  2783  2791    2
    87  2783  2799    1
    88  2396  2287    1
    89  2396  2267    1
    90  1943  1834    1
    91  1943  1814    1
    92  1490  1381    1
    93  1490  1361    1
    94  2337  2329    2
    95  2337  2383    1
    96  1884  1876    2
    97  1884  1930    1
    98  1431  1423    2
    99  1431  1477    1
   100  2328  2336    2
   101  2328  2344    1
   102  1875  1883    2
   103  1875  1891    1
   104  1422  1430    2
   105  1422  1438    1
   106  2336  2392    1
   107  3697  3749    1
   108  1883  1939    1
   109  3698  3744    1
   110  3244  3296    1
   111  1430  1486    1
   112  3245  3291    1
   113  2791  2843    1
   114  2792  2838    1
   115  3756  3629    1
   116  3303  3176    1
   117  2850  2723    1
   118  2329  2355    1
   119  1876  1902    1
   120  1423  1449    1
   121  3755  3646    1
   122  3755  3626    1
   123  3302  3193    1
   124  3302  3173    1
   125  2849  2740    1
   126  2849  2720    1
   127  3696  3688    2
   128  3696  3742    1
   129  3243  3235    2
   130  3243  3289    1
   131  2790  2782    2
   132  2790  2836    1
   133  3687  3695    2
   134  3687  3703    1
   135  3234  3242    2
   136  3234  3250    1
   137  2781  2789    2
   138  2781  2797    1
   139  3695  3751    1
   140  3242  3298    1
   141  2789  2845    1
   142  3688  3714    1
   143  3235  3261    1
   144  2782  2808    1
   145  1031   908    1
   146   578   455    1
   147   125     2    1
   148  1026   911    1
   149   573   458    1
   150   120     5    1
   151   994   923    1
   152   541   470    1
   153    88    17    1
   154  1024   911    1
   155   571   458    1
   156   118     5    1
   157   987  2353    2
   158   987   921    1
   159   534  1900    2
   160   534   468    1
   161    81  1447    2
   162    81    15    1
   163  1033   908    1
   164   580   455    1
   165   127     2    1
   166  2390  2267    1
   167  1937  1814    1
   168  1484  1361    1
   169  2385  2270    1
   170  1932  1817    1
   171  1479  1364    1
   172  2353  2282    1
   173  1900  1829    1
   174  1447  1376    1
   175  2383  2270    1
   176  1930  1817    1
   177  1477  1364    1
   178  2346  3712    2
   179  2346  2280    1
   180  1893  3259    2
   181  1893  1827    1
   182  1440  2806    2
   183  1440  1374    1
   184   985   543    2
   185   985   919    1
   186   532    90    2
   187   532   466    1
   188    79    13    1
   189  2392  2267    1
   190  1939  1814    1
   191  1486  1361    1
   192  3749  3626    1
   193  3296  3173    1
   194  2843  2720    1
   195  3744  3629    1
   196  3291  3176    1
   197  2838  2723    1
   198   996   998    2
   199  3712  3641    1
   200   543   545    1
   201  3259  3188    1
   202    90    92    1
   203  2806  2735    1
   204  3742  3629    1
   205  3289  3176    1
   206  2836  2723    1
   207  3705  3639    1
   208  3252  3186    1
   209  2799  2733    1
   210  2344  1902    2
   211  2344  2278    1
   212  1891  1449    2
   213  1891  1825    1
   214  1438  1372    1
   215  3751  3626    1
   216  3298  3173    1
   217  2845  2720    1
   218  2355  2357    2
   219  1902  1904    1
   220  1449  1451    1
   221  3703  3261    2
   222  3703  3637    1
   223  3250  2808    2
   224  3250  3184    1
   225  2797  2731    1
   226  3714  3716    2
   227  3261  3263    1
   228  2808  2810    1
   229   911  1018    1
   230   911  1016    1
   231   911  1006    1
   232   458   565    1
   233   458   563    1
   234   458   553    1
   235     5   112    1
   236     5   110    1
   237     5   100    1
   238   908  1013    1
   239   908  1011    1
   240   908  1009    1
   241   455   560    1
   242   455   558    1
   243   455   556    1
   244     2   107    1
   245     2   105    1
   246     2   103    1
   247  2270  2377    1
   248  2270  2375    1
   249  2270  2365    1
   250  1817  1924    1
   251  1817  1922    1
   252  1817  1912    1
   253  1364  1471    1
   254  1364  1469    1
   255  1364  1459    1
   256  2267  2372    1
   257  2267  2370    1
   258  2267  2368    1
   259  1814  1919    1
   260  1814  1917    1
   261  1814  1915    1
   262  1361  1466    1
   263  1361  1464    1
   264  1361  1462    1
   265  3629  3736    1
   266  3629  3734    1
   267  3629  3724    1
   268  3176  3283    1
   269  3176  3281    1
   270  3176  3271    1
   271  2723  2830    1
   272  2723  2828    1
   273  2723  2818    1
   274  3626  3731    1
   275  3626  3729    1
   276  3626  3727    1
   277  3173  3278    1
   278  3173  3276    1
   279  3173  3274    1
   280  2720  2825    1
   281  2720  2823    1
   282  2720  2821    1
   283   930  1035    1
   284   477   582    1
   285    24   129    1
   286  2289  2394    1
   287  1836  1941    1
   288  1383  1488    1
   289  3648  3753    1
   290  3195  3300    1
   291  2742  2847    1
   292   998   939    1
   293   545   486    1
   294   545   940    1
   295    92    33    1
   296    92   487    1
   297  1018   910    1
   298   565   457    1
   299   112     4    1
   300  1013   914    1
   301   560   461    1
   302   107     8    1
   303  2357  2298    1
   304  1904  1845    1
   305  1904  2299    1
   306  1451  1392    1
   307  1451  1846    1
   308  2377  2269    1
   309  1924  1816    1
   310  1471  1363    1
   311  1011   914    1
   312   558   461    1
   313   105     8    1
   314  1016   910    1
   315   563   457    1
   316   110     4    1
   317  2372  2273    1
   318  1919  1820    1
   319  1466  1367    1
   320  3716  3657    1
   321  3263  3204    1
   322  3263  3658    1
   323  2810  2751    1
   324  2810  3205    1
   325  3736  3628    1
   326  3283  3175    1
   327  2830  2722    1
   328  2370  2273    1
   329  1917  1820    1
   330  1464  1367    1
   331  2375  2269    1
   332  1922  1816    1
   333  1469  1363    1
   334  3731  3632    1
   335  3278  3179    1
   336  2825  2726    1
   337  1035   914    1
   338   582   461    1
   339   129     8    1
   340  3729  3632    1
   341  3276  3179    1
   342  2823  2726    1
   343  3734  3628    1
   344  3281  3175    1
   345  2828  2722    1
   346  2394  2273    1
   347  1941  1820    1
   348  1488  1367    1
   349  3753  3632    1
   350  3300  3179    1
   351  2847  2726    1
   352  1006   952    1
   353   553   499    1
   354   100    46    1
   355  1009   949    1
   356   556   496    1
   357   103    43    1
   358  2365  2311    1
   359  1912  1858    1
   360  1459  1405    1
   361  2368  2308    1
   362  1915  1855    1
   363  1462  1402    1
   364  3724  3670    1
   365  3271  3217    1
   366  2818  2764    1
   367  3727  3667    1
   368  3274  3214    1
   369  2821  2761    1
   370   914  1021    1
   371   914  1003    1
   372   914  1019    1
   373   461   568    1
   374   461   550    1
   375   461   566    1
   376     8   115    1
   377     8    97    1
   378     8   113    1
   379   910  1027    1
   380   910  1007    1
   381   910  1029    1
   382   457   574    1
   383   457   554    1
   384   457   576    1
   385     4   121    1
   386     4   101    1
   387     4   123    1
   388  2273  2380    1
   389  2273  2362    1
   390  2273  2378    1
   391  1820  1927    1
   392  1820  1909    1
   393  1820  1925    1
   394  1367  1474    1
   395  1367  1456    1
   396  1367  1472    1
   397  2269  2386    1
   398  2269  2366    1
   399  2269  2388    1
   400  1816  1933    1
   401  1816  1913    1
   402  1816  1935    1
   403  1363  1480    1
   404  1363  1460    1
   405  1363  1482    1
   406  3632  3739    1
   407  3632  3721    1
   408  3632  3737    1
   409  3179  3286    1
   410  3179  3268    1
   411  3179  3284    1
   412  2726  2833    1
   413  2726  2815    1
   414  2726  2831    1
   415  3628  3745    1
   416  3628  3725    1
   417  3628  3747    1
   418  3175  3292    1
   419  3175  3272    1
   420  3175  3294    1
   421  2722  2839    1
   422  2722  2819    1
   423  2722  2841    1
   424   936   960    1
   425   483   507    1
   426    30    54    1
   427   934   963    1
   428   481   510    1
   429    28    57    1
   430  2295  2319    1
   431  1842  1866    1
   432  1389  1413    1
   433  2293  2322    1
   434  1840  1869    1
   435  1387  1416    1
   436  3654  3678    1
   437  3201  3225    1
   438  2748  2772    1
   439  3652  3681    1
   440  3199  3228    1
   441  2746  2775    1
   442   952  1007    1
   443   952   956    2
   444   499   554    1
   445   499   503    1
   446    46   101    1
   447    46    50    1
   448   949  1003    1
   449   949   953    1
   450   496   550    1
   451   496   500    1
   452    43    97    1
   453    43    47    1
   454  2311  2366    1
   455  2311  2315    2
   456  1858  1913    1
   457  1858  1862    1
   458  1405  1460    1
   459  1405  1409    1
   460  2308  2362    1
   461  2308  2312    1
   462  1855  1909    1
   463  1855  1859    1
   464  1402  1456    1
   465  1402  1406    1
   466  3670  3725    1
   467  3670  3674    2
   468  3217  3272    1
   469  3217  3221    1
   470  2764  2819    1
   471  2764  2768    1
   472  1027   975    1
   473   574   522    1
   474   121    69    1
   475  1021   975    1
   476   568   522    1
   477   115    69    1
   478  3667  3721    1
   479  3667  3671    2
   480  3214  3268    1
   481  3214  3218    2
   482  2761  2815    1
   483  2761  2765    2
   484  2386  2334    1
   485  1933  1881    1
   486  1480  1428    1
   487  2380  2334    1
   488  1927  1881    1
   489  1474  1428    1
   490  3745  3693    1
   491  3292  3240    1
   492  2839  2787    1
   493  3739  3693    1
   494  1029   973    1
   495  3286  3240    1
   496   576   520    1
   497  2833  2787    1
   498   123    67    1
   499  1019   973    1
   500   566   520    1
   501   113    67    1
   502  2388  2332    1
   503  1935  1879    1
   504  1482  1426    1
   505   975   967    2
   506   522   514    1
   507    69    61    1
   508  2378  2332    1
   509  1925  1879    1
   510  1472  1426    1
   511  3747  3691    1
   512  3294  3238    1
   513  2841  2785    1
   514  2334  2326    2
   515   960   956    1
   516  1881  1873    1
   517   507   503   ar
   518   507   962   ar
   519  1428  1420    1
   520    54    50   ar
   521    54   509   ar
   522  3737  3691    1
   523  3284  3238    1
   524  2831  2785    1
   525   973   965    1
   526   520   512    1
   527   963   953   ar
   528   963  2317   ar
   529    67    59    1
   530   510   500   ar
   531   510  1864   ar
   532    57    47   ar
   533    57  1411   ar
   534  3693  3685    2
   535  2319  2315    1
   536  3240  3232    2
   537  1866  1862   ar
   538  1866  2321   ar
   539  2787  2779    2
   540  1413  1409   ar
   541  1413  1868   ar
   542  2332  2324    1
   543  1879  1871    1
   544  2322  2312   ar
   545  2322  3676   ar
   546  1426  1418    1
   547  1869  1859   ar
   548  1869  3223   ar
   549  1416  1406   ar
   550  1416  2770   ar
   551  3678  3674    1
   552  3225  3221   ar
   553  3225  3680   ar
   554   944  1000    1
   555  2772  2768   ar
   556  2772  3227   ar
   557   491   547    1
   558    38    94    1
   559  3691  3683    1
   560  3238  3230    1
   561  3681  3671    1
   562  2785  2777    1
   563  3228  3218    1
   564  2775  2765    1
   565  2303  2359    1
   566  1850  1906    1
   567  1397  1453    1
   568   956   961    1
   569   503   508   ar
   570    50    55   ar
   571  3662  3718    1
   572  3209  3265    1
   573  2756  2812    1
   574   953   957   ar
   575   500   504   ar
   576    47    51   ar
   577  2315  2320    1
   578  1862  1867   ar
   579  1409  1414   ar
   580   938   997    1
   581   485   544    1
   582    32    91    1
   583  2312  2316   ar
   584  1859  1863   ar
   585  1406  1410   ar
   586  3674  3679    1
   587  3221  3226   ar
   588  2768  2773   ar
   589  2297  2356    1
   590  1844  1903    1
   591  1391  1450    1
   592   935   958    1
   593   482   505    1
   594    29    52    1
   595   917   983    1
   596   464   530    1
   597    11    77    1
   598  3671  3675    1
   599  3218  3222    1
   600  2765  2769    1
   601  3656  3715    1
   602  3203  3262    1
   603  2750  2809    1
   604   967   983    1
   605   967   989    1
   606   514   530   ar
   607   514   536   ar
   608    61    77   ar
   609    61    83   ar
   610   924   991    1
   611   471   538    1
   612    18    85    1
   613  2294  2317    1
   614  1841  1864    1
   615  1388  1411    1
   616  2276  2342    1
   617  1823  1889    1
   618  1370  1436    1
   619   965   991   ar
   620   965   981   ar
   621   931   962    1
   622   512   538   ar
   623   512   528   ar
   624   478   509    1
   625    59    85   ar
   626    59    75   ar
   627    25    56    1
   628  2326  2342    1
   629  2326  2348    1
   630  1873  1889   ar
   631  1873  1895   ar
   632  1420  1436   ar
   633  1420  1442   ar
   634  2283  2350    1
   635  1830  1897    1
   636  1377  1444    1
   637  3653  3676    1
   638  3200  3223    1
   639  2747  2770    1
   640  1000   943    1
   641  1000   989    1
   642   547   490    1
   643   547   536    1
   644    94    37    1
   645    94    83    1
   646  3635  3701    1
   647  3182  3248    1
   648  2729  2795    1
   649  2324  2350   ar
   650  2324  2340   ar
   651  2290  2321    1
   652  1871  1897   ar
   653  1871  1887   ar
   654  1837  1868    1
   655  1418  1444   ar
   656  1418  1434   ar
   657  1384  1415    1
   658  3685  3701    1
   659  3685  3707    1
   660  3232  3248    1
   661  3232  3254    1
   662  2779  2795    1
   663  2779  2801    1
   664  3642  3709    1
   665  3189  3256    1
   666  2736  2803    1
   667   958   954    1
   668   505   501    1
   669    52    48    1
   670  2359  2302    1
   671  2359  2348    1
   672  1906  1849    1
   673  1906  1895    1
   674  1453  1396    1
   675  1453  1442    1
   676  3683  3709   ar
   677  3683  3699   ar
   678  3649  3680    1
   679  3230  3256   ar
   680  3230  3246   ar
   681  3196  3227    1
   682  2777  2803   ar
   683  2777  2793   ar
   684  2743  2774    1
   685   530  2349   ar
   686   991   982   ar
   687    77  1896   ar
   688   538   529   ar
   689    85    76   ar
   690   962   955   ar
   691   509   502   ar
   692    56    49    1
   693  2317  2313   ar
   694  1864  1860   ar
   695  1411  1407   ar
   696   997   937    1
   697   997   981    1
   698   544   484    1
   699   544   528    1
   700    91    31    1
   701    91    75    1
   702  3718  3661    1
   703  3718  3707    1
   704  3265  3208    1
   705  3265  3254    1
   706  2812  2755    1
   707  2812  2801    1
   708   536  2343   ar
   709    83  1890   ar
   710  1889  3708   ar
   711  2350  2341   ar
   712  1436  3255   ar
   713  1897  1888   ar
   714  1444  1435   ar
   715  2321  2314   ar
   716  1868  1861   ar
   717  1415  1408    1
   718  3676  3672   ar
   719  3223  3219   ar
   720  2770  2766   ar
   721  2356  2296    1
   722  2356  2340    1
   723  1903  1843    1
   724  1903  1887    1
   725  1450  1390    1
   726  1450  1434    1
   727   981   992   ar
   728   528   539   ar
   729    75    86   ar
   730  1895  3702   ar
   731  1442  3249   ar
   732  3709  3700   ar
   733  3256  3247   ar
   734  2803  2794   ar
   735  3680  3673   ar
   736  3227  3220   ar
   737  2774  2767    1
   738  3715  3655    1
   739  3715  3699    1
   740  3262  3202    1
   741  3262  3246    1
   742  2809  2749    1
   743  2809  2793    1
   744  2340  2351   ar
   745  1887  1898   ar
   746  1434  1445   ar
   747  3699  3710   ar
   748  3246  3257   ar
   749  2793  2804   ar
   750   982   915    1
   751   982   966   ar
   752   529   462    1
   753   529   513   ar
   754    76     9    1
   755    76    60   ar
   756   946  1001    1
   757   493   548    1
   758    40    95    1
   759   990   926    1
   760   990   968    1
   761   537   473    1
   762   537   515    1
   763    84    20    1
   764    84    62    1
   765   961   932    1
   766   508   479    1
   767   508   959   ar
   768    55    26    1
   769    55   506   ar
   770  2341  2274    1
   771  2341  2325   ar
   772  1888  1821    1
   773  1888  1872   ar
   774  1435  1368    1
   775  1435  1419   ar
   776  2305  2360    1
   777  1852  1907    1
   778  1399  1454    1
   779   984   968    1
   780   984   916    1
   781   531   515    1
   782   531   463    1
   783  2349  2285    1
   784  2349  2327   ar
   785    78    62    1
   786    78    10    1
   787  1896  1832    1
   788  1896  1874   ar
   789  1443  1379    1
   790  1443  1421    1
   791   992   966   ar
   792   992   925    1
   793   539   513   ar
   794   539   472    1
   795    86    60   ar
   796    86    19    1
   797  2320  2291    1
   798  1867  1838    1
   799  1867  2318   ar
   800  1414  1385    1
   801  1414  1865   ar
   802  3700  3633    1
   803  3700  3684   ar
   804  3247  3180    1
   805  3247  3231   ar
   806  2794  2727    1
   807  2794  2778   ar
   808  3664  3719    1
   809  3211  3266    1
   810  2758  2813    1
   811  2343  2327   ar
   812  2343  2275    1
   813  1890  1874   ar
   814  1890  1822    1
   815  3708  3644    1
   816  3708  3686   ar
   817  1437  1421    1
   818  1437  1369    1
   819  3255  3191    1
   820  3255  3233   ar
   821  2802  2738    1
   822  2802  2780    1
   823   957  1001    1
   824   957  2323   ar
   825   504   548    1
   826   504  1870   ar
   827    51    95    1
   828    51  1417   ar
   829  2351  2325   ar
   830  2351  2284    1
   831  1898  1872   ar
   832  1898  1831    1
   833  1445  1419   ar
   834  1445  1378    1
   835  3679  3650    1
   836  3226  3197    1
   837  3226  3677   ar
   838  2773  2744    1
   839  2773  3224   ar
   840  3702  3686   ar
   841  3702  3634    1
   842  3249  3233   ar
   843  3249  3181    1
   844  2796  2780    1
   845  2796  2728    1
   846  2316  2360    1
   847  2316  3682   ar
   848  1863  1907    1
   849  1863  3229   ar
   850  1410  1454    1
   851  1410  2776   ar
   852   966   974    1
   853   513   521    1
   854    60    68    1
   855  3710  3684   ar
   856  3710  3643    1
   857  3257  3231   ar
   858  3257  3190    1
   859  2804  2778   ar
   860  2804  2737    1
   861   968   976    2
   862   515   523    2
   863    62    70    2
   864  3675  3719    1
   865  3222  3266    1
   866  2769  2813    1
   867  2325  2333    1
   868  1872  1880    1
   869  1419  1427    1
   870  2327  2335    1
   871  1874  1882    1
   872  1421  1429    2
   873  3684  3692    1
   874  3231  3239    1
   875  2778  2786    1
   876  3686  3694    1
   877  3233  3241    1
   878  2780  2788    2
   879  1001   945    1
   880   548   492    1
   881   954   964    1
   882   954   950    2
   883    95    39    1
   884   501   511    1
   885   501   497    2
   886    48    58    1
   887    48    44    2
   888   955   959   ar
   889   955   951    1
   890   502   506   ar
   891   502   498    1
   892    49    53    1
   893    49    45    2
   894  2360  2304    1
   895  1907  1851    1
   896  2313  2323   ar
   897  2313  2309    1
   898  1454  1398    1
   899  1860  1870   ar
   900  1860  1856    1
   901  1407  1417   ar
   902  1407  1403    1
   903  2314  2318   ar
   904  2314  2310    1
   905  1861  1865   ar
   906  1861  1857    1
   907  1408  1412    1
   908  1408  1404    2
   909  3719  3663    1
   910  3266  3210    1
   911  3672  3682   ar
   912  3672  3668    1
   913  2813  2757    1
   914  3219  3229   ar
   915  3219  3215    1
   916  2766  2776   ar
   917  2766  2762    1
   918  3673  3677   ar
   919  3673  3669    1
   920  3220  3224   ar
   921  3220  3216    1
   922  2767  2771    1
   923  2767  2763    2
   924   974  1020    1
   925   974  1030    1
   926   521   567    1
   927   521   577    1
   928    68   114    1
   929    68   124    1
   930   964   933    1
   931   511   480    1
   932    58    27    1
   933  2333  2379    1
   934  2333  2389    1
   935  1880  1926    1
   936  1880  1936    1
   937  1427  1473    1
   938  1427  1483    1
   939   959  1002    1
   940   506   549    1
   941    53    96    1
   942  2323  2292    1
   943  1870  1839    1
   944  1417  1386    1
   945   976  1028    1
   946   976  1022    1
   947   523   575    1
   948   523   569    1
   949    70   122    1
   950    70   116    1
   951  1020   913    1
   952   567   460    1
   953   114     7    1
   954  3692  3738    1
   955  3692  3748    1
   956  3239  3285    1
   957  3239  3295    1
   958  2786  2832    1
   959  2786  2842    1
   960  2318  2361    1
   961  1865  1908    1
   962  1412  1455    1
   963  3682  3651    1
   964  3229  3198    1
   965  2776  2745    1
   966  2335  2387    1
   967  2335  2381    1
   968  1882  1934    1
   969  1882  1928    1
   970  1429  1481    1
   971  1429  1475    1
   972  2379  2272    1
   973  1926  1819    1
   974  1473  1366    1
   975  3677  3720    1
   976  3224  3267    1
   977  2771  2814    1
   978  1004   950    1
   979  1004   913    1
   980   551   497    1
   981   551   460    1
   982    98    44    1
   983    98     7    1
   984  1030   909    1
   985   577   456    1
   986   124     3    1
   987  1008   951    1
   988  1008   909    1
   989   555   498    1
   990   555   456    1
   991   102    45    1
   992   102     3    1
   993  3694  3746    1
   994  3694  3740    1
   995  3241  3293    1
   996  3241  3287    1
   997  2788  2840    1
   998  2788  2834    1
   999  3738  3631    1
  1000  3285  3178    1
  1001  2832  2725    1
  1002  1028   909    1
  1003   575   456    1
  1004   122     3    1
  1005  2363  2309    1
  1006  2363  2272    1
  1007  1910  1856    1
  1008  1910  1819    1
  1009  1457  1403    1
  1010  1457  1366    1
  1011  2389  2268    1
  1012  1936  1815    1
  1013  1483  1362    1
  1014  2367  2310    1
  1015  2367  2268    1
  1016  1914  1857    1
  1017  1914  1815    1
  1018  1461  1404    1
  1019  1461  1362    1
  1020  2387  2268    1
  1021  1934  1815    1
  1022  1481  1362    1
  1023  3722  3668    1
  1024  3722  3631    1
  1025  3269  3215    1
  1026  3269  3178    1
  1027  2816  2762    1
  1028  2816  2725    1
  1029  3748  3627    1
  1030  3295  3174    1
  1031  2842  2721    1
  1032  1022   913    1
  1033   569   460    1
  1034   116     7    1
  1035  3726  3669    1
  1036  3726  3627    1
  1037  3273  3216    1
  1038  3273  3174    1
  1039  2820  2763    1
  1040  2820  2721    1
  1041  3746  3627    1
  1042  3293  3174    1
  1043  2840  2721    1
  1044  2381  2272    1
  1045  1928  1819    1
  1046  1475  1366    1
  1047   950  1010    1
  1048   497   557    1
  1049    44   104    1
  1050   951  1005    1
  1051   498   552    1
  1052    45    99    1
  1053  3740  3631    1
  1054  3287  3178    1
  1055  2834  2725    1
  1056  2309  2369    1
  1057  1856  1916    1
  1058  1403  1463    1
  1059  2310  2364    1
  1060  1857  1911    1
  1061  1404  1458    1
  1062  3668  3728    1
  1063  3215  3275    1
  1064  2762  2822    1
  1065  3669  3723    1
  1066  3216  3270    1
  1067  2763  2817    1
  1068  1002   947    1
  1069  1002   948    1
  1070   549   494    1
  1071   549   495    1
  1072    96    41    1
  1073    96    42    1
  1074  1051  1046    1
  1075   598   593    1
  1076   145   140    1
  1077  2361  2306    1
  1078  2361  2307    1
  1079  1908  1853    1
  1080  1908  1854    1
  1081  1455  1400    1
  1082  1455  1401    1
  1083  2410  2405    1
  1084  1957  1952    1
  1085  1504  1499    1
  1086  1042  1046    1
  1087   589   593    1
  1088   136   140    1
  1089  3720  3665    1
  1090  3720  3666    1
  1091  3267  3212    1
  1092  3267  3213    1
  1093  2814  2759    1
  1094  2814  2760    1
  1095   913  1036    1
  1096   913  1012    1
  1097   913  1014    1
  1098  3769  3764    1
  1099   460   583    1
  1100   460   559    1
  1101   460   561    1
  1102  3316  3311    1
  1103     7   130    1
  1104     7   106    1
  1105     7   108    1
  1106   909  1015    1
  1107   909  1017    1
  1108  2863  2858    1
  1109   456   562    1
  1110   456   564    1
  1111     3   109    1
  1112     3   111    1
  1113  2401  2405    1
  1114  1948  1952    1
  1115  1495  1499    1
  1116  2272  2395    1
  1117  2272  2371    1
  1118  2272  2373    1
  1119  1819  1942    1
  1120  1819  1918    1
  1121  1819  1920    1
  1122  1366  1489    1
  1123  1366  1465    1
  1124  1366  1467    1
  1125  2268  2374    1
  1126  2268  2376    1
  1127  1815  1921    1
  1128  1815  1923    1
  1129  1362  1468    1
  1130  1362  1470    1
  1131  3760  3764    1
  1132  3307  3311    1
  1133  2854  2858    1
  1134  3631  3754    1
  1135  3631  3730    1
  1136  3631  3732    1
  1137  3178  3301    1
  1138  3178  3277    1
  1139  3178  3279    1
  1140  2725  2848    1
  1141  2725  2824    1
  1142  2725  2826    1
  1143  3627  3733    1
  1144  3627  3735    1
  1145  3174  3280    1
  1146  3174  3282    1
  1147  2721  2827    1
  1148  2721  2829    1
  1149  1054  1053    1
  1150   601   600    1
  1151   148   147    1
  1152  1010   907    1
  1153   557   454    1
  1154   104     1    1
  1155  2413  2412    1
  1156  1960  1959    1
  1157  1507  1506    1
  1158  1005   912    1
  1159   552   459    1
  1160    99     6    1
  1161  2369  2266    1
  1162  1916  1813    1
  1163  1463  1360    1
  1164   941   999    1
  1165   488   546    1
  1166    35    93    1
  1167  3772  3771    1
  1168  3319  3318    1
  1169  2866  2865    1
  1170  1046  1053    1
  1171  1046  1047    1
  1172   593   600    1
  1173   593   594    1
  1174   140   147    1
  1175   140   141    1
  1176  2364  2271    1
  1177  1911  1818    1
  1178  1458  1365    1
  1179  3728  3625    1
  1180  3275  3172    1
  1181  2822  2719    1
  1182  2300  2358    1
  1183  1847  1905    1
  1184  1394  1452    1
  1185  2405  2412    1
  1186  2405  2406    1
  1187  1952  1959    1
  1188  1952  1953    1
  1189  1499  1506    1
  1190  1499  1500    1
  1191  3723  3630    1
  1192  3270  3177    1
  1193  2817  2724    1
  1194  1040  1043    1
  1195   587   590    1
  1196   134   137    1
  1197  3659  3717    1
  1198  3206  3264    1
  1199  2753  2811    1
  1200  3764  3771    1
  1201  3764  3765    1
  1202  3311  3318    1
  1203  3311  3312    1
  1204  2858  2865    1
  1205  2858  2859    1
  1206  2399  2402    1
  1207  1946  1949    1
  1208  1493  1496    1
  1209  3758  3761    1
  1210  3305  3308    1
  1211  2852  2855    1
  1212  1036   929    1
  1213   583   476    1
  1214   130    23    1
  1215  2395  2288    1
  1216  1942  1835    1
  1217  1489  1382    1
  1218  1012   907    1
  1219   559   454    1
  1220   106     1    1
  1221  1015   912    1
  1222   562   459    1
  1223   109     6    1
  1224  1053  1057    1
  1225  1053  1049    1
  1226   600   604    1
  1227   600   596    1
  1228   147   151    1
  1229   147   143    1
  1230  3754  3647    1
  1231  3301  3194    1
  1232  2848  2741    1
  1233  2371  2266    1
  1234  1918  1813    1
  1235  1465  1360    1
  1236  2374  2271    1
  1237  1921  1818    1
  1238  1468  1365    1
  1239  2412  2416    1
  1240  2412  2408    1
  1241  1959  1963    1
  1242  1959  1955    1
  1243  1506  1510    1
  1244  1506  1502    1
  1245  1014   907    1
  1246   561   454    1
  1247   108     1    1
  1248   942   999    1
  1249   489   546    1
  1250    36    93    1
  1251  3730  3625    1
  1252  3277  3172    1
  1253  2824  2719    1
  1254  3733  3630    1
  1255  3280  3177    1
  1256  2827  2724    1
  1257   999   993    1
  1258   546   540    1
  1259    93    87    1
  1260  1017   912    1
  1261   564   459    1
  1262  3771  3775    1
  1263  3771  3767    1
  1264   111     6    1
  1265  3318  3322    1
  1266  3318  3314    1
  1267  2865  2869    1
  1268  2865  2861    1
  1269  2373  2266    1
  1270  1920  1813    1
  1271  1467  1360    1
  1272  2301  2358    1
  1273  1848  1905    1
  1274  1395  1452    1
  1275  2358  2352    1
  1276  1905  1899    1
  1277  1452  1446    1
  1278  2376  2271    1
  1279  1923  1818    1
  1280  1470  1365    1
  1281  3732  3625    1
  1282  3279  3172    1
  1283  2826  2719    1
  1284  3660  3717    1
  1285  3207  3264    1
  1286  2754  2811    1
  1287  3717  3711    1
  1288  3264  3258    1
  1289  2811  2805    1
  1290  3735  3630    1
  1291  3282  3177    1
  1292  2829  2724    1
  1293   920   988    1
  1294   467   535    1
  1295    14    82    1
  1296  1043  1049    1
  1297  1043  1041    2
  1298   590   596    1
  1299   590   588    2
  1300   137   143    1
  1301   137   135    2
  1302  2279  2347    1
  1303  1826  1894    1
  1304  1373  1441    1
  1305   922   995    1
  1306   469   542    1
  1307    16    89    1
  1308   918   986    1
  1309   465   533    1
  1310    12    80    1
  1311  2402  2408    1
  1312  2402  2400    2
  1313  1949  1955    1
  1314  1949  1947    2
  1315  1496  1502    1
  1316  1496  1494    2
  1317  3638  3706    1
  1318  3185  3253    1
  1319  2732  2800    1
  1320  2281  2354    1
  1321  1828  1901    1
  1322  1375  1448    1
  1323  2277  2345    1
  1324  1824  1892    1
  1325  1371  1439    1
  1326  3761  3767    1
  1327  3761  3759    2
  1328  3308  3314    1
  1329  3308  3306    2
  1330  2855  2861    1
  1331  2855  2853    2
  1332  3640  3713    1
  1333  3187  3260    1
  1334  2734  2807    1
  1335   907  1032    1
  1336   907  1034    1
  1337   454   579    1
  1338   454   581    1
  1339     1   126    1
  1340     1   128    1
  1341  3636  3704    1
  1342  3183  3251    1
  1343  2730  2798    1
  1344   912  1025    1
  1345   912  1023    1
  1346   912  1188    1
  1347   459   572    1
  1348   459   570    1
  1349   459   735    1
  1350     6   119    1
  1351     6   117    1
  1352     6   282    1
  1353  1049  1052    1
  1354   596   599    1
  1355   143   146    1
  1356  2266  2391    1
  1357  2266  2393    1
  1358  1813  1938    1
  1359  1813  1940    1
  1360  1360  1485    1
  1361  1360  1487    1
  1362  2271  2384    1
  1363  2271  2382    1
  1364  2271  2547    1
  1365  1818  1931    1
  1366  1818  1929    1
  1367  1818  2094    1
  1368  1365  1478    1
  1369  1365  1476    1
  1370  1365  1641    1
  1371  2408  2411    1
  1372  1955  1958    1
  1373  1502  1505    1
  1374  3625  3750    1
  1375  3625  3752    1
  1376  3172  3297    1
  1377  3172  3299    1
  1378  2719  2844    1
  1379  2719  2846    1
  1380  3630  3743    1
  1381  3630  3741    1
  1382  3630  3906    1
  1383  3177  3290    1
  1384  3177  3288    1
  1385  3177  3453    1
  1386  2724  2837    1
  1387  2724  2835    1
  1388  2724  3000    1
  1389  3767  3770    1
  1390  3314  3317    1
  1391  2861  2864    1
  1392   988  1123    1
  1393   535   670    1
  1394    82   217    1
  1395   993  2347   ar
  1396   993  1122   ar
  1397   540  1894   ar
  1398   540   669   ar
  1399    87  1441   ar
  1400    87   216   ar
  1401  2347  2482   ar
  1402  1894  2029   ar
  1403  1441  1576   ar
  1404  2352  3706   ar
  1405  2352  2481   ar
  1406  1899  3253   ar
  1407  1899  2028   ar
  1408  1446  2800   ar
  1409  1446  1575   ar
  1410   995   533   ar
  1411   995  1120   ar
  1412   542    80   ar
  1413   542   667   ar
  1414    89   214    1
  1415  1025  1130    1
  1416   572   677    1
  1417   119   224    1
  1418  1032  1131    1
  1419   579   678    1
  1420   126   225    1
  1421   986  1121    1
  1422   533   668   ar
  1423    80   215   ar
  1424  3706  3841   ar
  1425  3253  3388   ar
  1426  2800  2935   ar
  1427  1034  1129    1
  1428   581   676    1
  1429   128   223    1
  1430  3711  3840    1
  1431  3258  3387    1
  1432  2805  2934    1
  1433  1023  1128    1
  1434   570   675    1
  1435   117   222    1
  1436  2354  1892   ar
  1437  2354  2479   ar
  1438  1901  1439   ar
  1439  1901  2026   ar
  1440  1448  1573    1
  1441  2384  2489    1
  1442  1931  2036    1
  1443  1478  1583    1
  1444  2391  2490    1
  1445  1938  2037    1
  1446  1485  1584    1
  1447  2345  2480    1
  1448  1892  2027   ar
  1449  1439  1574   ar
  1450  2393  2488    1
  1451  1940  2035    1
  1452  1487  1582    1
  1453  1041  1039    1
  1454  1041  1045    1
  1455   588   586    1
  1456   588   592    1
  1457   135   133    1
  1458   135   139    1
  1459  2382  2487    1
  1460  1929  2034    1
  1461  1476  1581    1
  1462  3713  3251   ar
  1463  3713  3838   ar
  1464  3260  2798   ar
  1465  3260  3385   ar
  1466  2807  2932    1
  1467  3743  3848    1
  1468  3290  3395    1
  1469  2837  2942    1
  1470  3750  3849    1
  1471  3297  3396    1
  1472  2844  2943    1
  1473  3704  3839    1
  1474  3251  3386   ar
  1475  2798  2933   ar
  1476  3752  3847    1
  1477  3299  3394    1
  1478  2846  2941    1
  1479  2400  2398    1
  1480  2400  2404    1
  1481  1947  1945    1
  1482  1947  1951    1
  1483  1494  1492    1
  1484  1494  1498    1
  1485  3741  3846    1
  1486  3288  3393    1
  1487  2835  2940    1
  1488  3759  3757    1
  1489  3759  3763    1
  1490  3306  3304    1
  1491  3306  3310    1
  1492  2853  2851    1
  1493  2853  2857    1
  1494  1052  1045    1
  1495  1052  1056    1
  1496   599   592    1
  1497   599   603    1
  1498   146   139    1
  1499   146   150    1
  1500  2411  2404    1
  1501  2411  2415    1
  1502  1958  1951    1
  1503  1958  1962    1
  1504  1505  1498    1
  1505  1505  1509    1
  1506  3770  3763    1
  1507  3770  3774    1
  1508  3317  3310    1
  1509  3317  3321    1
  1510  2864  2857    1
  1511  2864  2868    1
  1512  1078  1189    1
  1513   625   736    1
  1514   172   283    1
  1515  1123  1131    2
  1516  1123  1145    1
  1517   670   678    2
  1518   670   692    1
  1519   217   225    2
  1520   217   239    1
  1521  1122  1130    1
  1522  1122  1138   ar
  1523   669   677    1
  1524   669   685   ar
  1525   216   224    1
  1526   216   232   ar
  1527  1130  1182    1
  1528  1131  1177    1
  1529   677   729    1
  1530   678   724    1
  1531   224   276    1
  1532   225   271    1
  1533  1189  1062    1
  1534   736   609    1
  1535   283   156    1
  1536  2437  2548    1
  1537  1984  2095    1
  1538  1531  1642    1
  1539  2482  2490    1
  1540  2482  2504   ar
  1541  2029  2037    1
  1542  2029  2051   ar
  1543  1576  1584    1
  1544  1576  1598   ar
  1545  2481  2489    1
  1546  2481  2497   ar
  1547  2028  2036    1
  1548  2028  2044   ar
  1549  1575  1583    1
  1550  1575  1591   ar
  1551  1188  1079    1
  1552   735   626    1
  1553   282   173    1
  1554  1129  1121    2
  1555  1129  1175    1
  1556   676   668    1
  1557   676   722    1
  1558   223   215    1
  1559   223   269    1
  1560  1120  1128    1
  1561  1120  1136   ar
  1562   667   675    1
  1563   667   683   ar
  1564   214   222    2
  1565   214   230    1
  1566  1128  1184    1
  1567  1045  1048    1
  1568  2489  2541    1
  1569   675   731    1
  1570  2490  2536    1
  1571   592   595    1
  1572  2036  2088    1
  1573   222   278    1
  1574  2037  2083    1
  1575   139   142    1
  1576  1583  1635    1
  1577  1584  1630    1
  1578  2548  2421    1
  1579  2095  1968    1
  1580  1642  1515    1
  1581  3796  3907    1
  1582  3343  3454    1
  1583  2890  3001    1
  1584  1121  1147    1
  1585   668   694   ar
  1586   215   241   ar
  1587  3841  3849    1
  1588  3841  3863   ar
  1589  3388  3396    1
  1590  3388  3410   ar
  1591  2935  2943    1
  1592  2935  2957   ar
  1593  3840  3848    2
  1594  3840  3856    1
  1595  3387  3395    2
  1596  3387  3403    1
  1597  2934  2942    2
  1598  2934  2950    1
  1599  2547  2438    1
  1600  2094  1985    1
  1601  1641  1532    1
  1602  2488  2480    2
  1603  2488  2534    1
  1604  2035  2027    1
  1605  2035  2081    1
  1606  1582  1574    1
  1607  1582  1628    1
  1608  2479  2487    1
  1609  2479  2495   ar
  1610  2026  2034    1
  1611  2026  2042   ar
  1612  1573  1581    2
  1613  1573  1589    1
  1614  2487  2543    1
  1615  2404  2407    1
  1616  3848  3900    1
  1617  2034  2090    1
  1618  3849  3895    1
  1619  1951  1954    1
  1620  3395  3447    1
  1621  1581  1637    1
  1622  3396  3442    1
  1623  1498  1501    1
  1624  2942  2994    1
  1625  2943  2989    1
  1626  3907  3780    1
  1627  3454  3327    1
  1628  3001  2874    1
  1629  2480  2506    1
  1630  2027  2053   ar
  1631  1574  1600   ar
  1632  3906  3797    1
  1633  3453  3344    1
  1634  3000  2891    1
  1635  3847  3839    2
  1636  3847  3893    1
  1637  3394  3386    1
  1638  3394  3440    1
  1639  2941  2933    1
  1640  2941  2987    1
  1641  3838  3846    1
  1642  3838  3854   ar
  1643  3385  3393    1
  1644  3385  3401   ar
  1645  2932  2940    2
  1646  2932  2948    1
  1647  3846  3902    1
  1648  3763  3766    1
  1649  3393  3449    1
  1650  3310  3313    1
  1651  2940  2996    1
  1652  2857  2860    1
  1653  3839  3865    1
  1654  3386  3412   ar
  1655  2933  2959   ar
  1656  1182  1059    1
  1657   729   606    1
  1658   276   153    1
  1659  1177  1062    1
  1660   724   609    1
  1661   271   156    1
  1662  1145  1074    1
  1663   692   621    1
  1664   239   168    1
  1665  1175  1062    1
  1666   722   609    1
  1667   269   156    1
  1668  1138  2504   ar
  1669  1138  1072    1
  1670   685  2051   ar
  1671   685   619    1
  1672   232  1598   ar
  1673   232   166    1
  1674  1184  1059    1
  1675   731   606    1
  1676   278   153    1
  1677  2541  2418    1
  1678  2088  1965    1
  1679  1635  1512    1
  1680  2536  2421    1
  1681  2083  1968    1
  1682  1630  1515    1
  1683  2504  2433    1
  1684  2051  1980    1
  1685  1598  1527    1
  1686  2534  2421    1
  1687  2081  1968    1
  1688  1628  1515    1
  1689  2497  3863   ar
  1690  2497  2431    1
  1691  2044  3410   ar
  1692  2044  1978    1
  1693  1591  2957   ar
  1694  1591  1525    1
  1695  1136   694   ar
  1696  1136  1070    1
  1697   683   241   ar
  1698   683   617    1
  1699   230   164    1
  1700  2543  2418    1
  1701  2090  1965    1
  1702  1637  1512    1
  1703  3900  3777    1
  1704  3447  3324    1
  1705  2994  2871    1
  1706  3895  3780    1
  1707  3442  3327    1
  1708  2989  2874    1
  1709  1147  1149    2
  1710  3863  3792    1
  1711   694   696    1
  1712  3410  3339    1
  1713   241   243    1
  1714  2957  2886    1
  1715  3893  3780    1
  1716  3440  3327    1
  1717  2987  2874    1
  1718  3856  3790    1
  1719  3403  3337    1
  1720  2950  2884    1
  1721  2495  2053   ar
  1722  2495  2429    1
  1723  2042  1600   ar
  1724  2042  1976    1
  1725  1589  1523    1
  1726  3902  3777    1
  1727  3449  3324    1
  1728  2996  2871    1
  1729  2506  2508    2
  1730  2053  2055    1
  1731  1600  1602    1
  1732  1048  1050    1
  1733  1048  1044    1
  1734  1048  1055    1
  1735   595   597    1
  1736   595   591    1
  1737   595   602    1
  1738   142   144    1
  1739   142   138    1
  1740   142   149    1
  1741  3854  3412   ar
  1742  3854  3788    1
  1743  3401  2959   ar
  1744  3401  3335    1
  1745  2948  2882    1
  1746  3865  3867    2
  1747  3412  3414    1
  1748  2959  2961    1
  1749  2407  2409    1
  1750  2407  2403    1
  1751  2407  2414    1
  1752  1954  1956    1
  1753  1954  1950    1
  1754  1954  1961    1
  1755  1501  1503    1
  1756  1501  1497    1
  1757  1501  1508    1
  1758  3766  3768    1
  1759  3766  3762    1
  1760  3766  3773    1
  1761  3313  3315    1
  1762  3313  3309    1
  1763  3313  3320    1
  1764  2860  2862    1
  1765  2860  2856    1
  1766  2860  2867    1
  1767  1062  1169    1
  1768  1062  1167    1
  1769  1062  1157    1
  1770   609   716    1
  1771   609   714    1
  1772   609   704    1
  1773   156   263    1
  1774   156   261    1
  1775   156   251    1
  1776  1059  1164    1
  1777  1059  1162    1
  1778  1059  1160    1
  1779   606   711    1
  1780   606   709    1
  1781   606   707    1
  1782   153   258    1
  1783   153   256    1
  1784   153   254    1
  1785  2421  2528    1
  1786  2421  2526    1
  1787  2421  2516    1
  1788  1968  2075    1
  1789  1968  2073    1
  1790  1968  2063    1
  1791  1515  1622    1
  1792  1515  1620    1
  1793  1515  1610    1
  1794  2418  2523    1
  1795  2418  2521    1
  1796  2418  2519    1
  1797  1965  2070    1
  1798  1965  2068    1
  1799  1965  2066    1
  1800  1512  1617    1
  1801  1512  1615    1
  1802  1512  1613    1
  1803  3780  3887    1
  1804  3780  3885    1
  1805  3780  3875    1
  1806  3327  3434    1
  1807  3327  3432    1
  1808  3327  3422    1
  1809  2874  2981    1
  1810  2874  2979    1
  1811  2874  2969    1
  1812  3777  3882    1
  1813  3777  3880    1
  1814  3777  3878    1
  1815  3324  3429    1
  1816  3324  3427    1
  1817  3324  3425    1
  1818  2871  2976    1
  1819  2871  2974    1
  1820  2871  2972    1
  1821  1081  1186    1
  1822   628   733    1
  1823   175   280    1
  1824  2440  2545    1
  1825  1987  2092    1
  1826  1534  1639    1
  1827  3799  3904    1
  1828  3346  3451    1
  1829  2893  2998    1
  1830  1149  1090    1
  1831   696   637    1
  1832   696  1091    1
  1833   243   184    1
  1834   243   638    1
  1835  1169  1061    1
  1836   716   608    1
  1837   263   155    1
  1838  1164  1065    1
  1839   711   612    1
  1840   258   159    1
  1841  2508  2449    1
  1842  2055  1996    1
  1843  2055  2450    1
  1844  1602  1543    1
  1845  1602  1997    1
  1846  2528  2420    1
  1847  2075  1967    1
  1848  1622  1514    1
  1849  1162  1065    1
  1850   709   612    1
  1851   256   159    1
  1852  1167  1061    1
  1853   714   608    1
  1854   261   155    1
  1855  2523  2424    1
  1856  2070  1971    1
  1857  1617  1518    1
  1858  3867  3808    1
  1859  3414  3355    1
  1860  3414  3809    1
  1861  2961  2902    1
  1862  2961  3356    1
  1863  3887  3779    1
  1864  3434  3326    1
  1865  2981  2873    1
  1866  2521  2424    1
  1867  2068  1971    1
  1868  1615  1518    1
  1869  2526  2420    1
  1870  2073  1967    1
  1871  1620  1514    1
  1872  3882  3783    1
  1873  3429  3330    1
  1874  2976  2877    1
  1875  1186  1065    1
  1876   733   612    1
  1877   280   159    1
  1878  3880  3783    1
  1879  3427  3330    1
  1880  2974  2877    1
  1881  3885  3779    1
  1882  3432  3326    1
  1883  2979  2873    1
  1884  2545  2424    1
  1885  2092  1971    1
  1886  1639  1518    1
  1887  3904  3783    1
  1888  3451  3330    1
  1889  2998  2877    1
  1890  1157  1103    1
  1891   704   650    1
  1892   251   197    1
  1893  1160  1100    1
  1894   707   647    1
  1895   254   194    1
  1896  2516  2462    1
  1897  2063  2009    1
  1898  1610  1556    1
  1899  2519  2459    1
  1900  2066  2006    1
  1901  1613  1553    1
  1902  3875  3821    1
  1903  3422  3368    1
  1904  2969  2915    1
  1905  3878  3818    1
  1906  3425  3365    1
  1907  2972  2912    1
  1908  1065  1172    1
  1909  1065  1154    1
  1910  1065  1170    1
  1911   612   719    1
  1912   612   701    1
  1913   612   717    1
  1914   159   266    1
  1915   159   248    1
  1916   159   264    1
  1917  1061  1178    1
  1918  1061  1158    1
  1919  1061  1180    1
  1920   608   725    1
  1921   608   705    1
  1922   608   727    1
  1923   155   272    1
  1924   155   252    1
  1925   155   274    1
  1926  2424  2531    1
  1927  2424  2513    1
  1928  2424  2529    1
  1929  1971  2078    1
  1930  1971  2060    1
  1931  1971  2076    1
  1932  1518  1625    1
  1933  1518  1607    1
  1934  1518  1623    1
  1935  2420  2537    1
  1936  2420  2517    1
  1937  2420  2539    1
  1938  1967  2084    1
  1939  1967  2064    1
  1940  1967  2086    1
  1941  1514  1631    1
  1942  1514  1611    1
  1943  1514  1633    1
  1944  3783  3890    1
  1945  3783  3872    1
  1946  3783  3888    1
  1947  3330  3437    1
  1948  3330  3419    1
  1949  3330  3435    1
  1950  2877  2984    1
  1951  2877  2966    1
  1952  2877  2982    1
  1953  3779  3896    1
  1954  3779  3876    1
  1955  3779  3898    1
  1956  3326  3443    1
  1957  3326  3423    1
  1958  3326  3445    1
  1959  2873  2990    1
  1960  2873  2970    1
  1961  2873  2992    1
  1962  1087  1111    1
  1963   634   658    1
  1964   181   205    1
  1965  1085  1114    1
  1966   632   661    1
  1967   179   208    1
  1968  2446  2470    1
  1969  1993  2017    1
  1970  1540  1564    1
  1971  2444  2473    1
  1972  1991  2020    1
  1973  1538  1567    1
  1974  3805  3829    1
  1975  3352  3376    1
  1976  2899  2923    1
  1977  3803  3832    1
  1978  3350  3379    1
  1979  2897  2926    1
  1980  1103  1158    1
  1981  1103  1107    2
  1982   650   705    1
  1983   650   654    1
  1984   197   252    1
  1985   197   201    1
  1986  1100  1154    1
  1987  1100  1104    1
  1988   647   701    1
  1989   647   651    1
  1990   194   248    1
  1991   194   198    1
  1992  2462  2517    1
  1993  2462  2466    2
  1994  2009  2064    1
  1995  2009  2013    1
  1996  1556  1611    1
  1997  1556  1560    1
  1998  2459  2513    1
  1999  2459  2463    1
  2000  2006  2060    1
  2001  2006  2010    1
  2002  1553  1607    1
  2003  1553  1557    1
  2004  3821  3876    1
  2005  3821  3825    2
  2006  3368  3423    1
  2007  3368  3372    1
  2008  2915  2970    1
  2009  2915  2919    1
  2010  1178  1126    1
  2011   725   673    1
  2012   272   220    1
  2013  1172  1126    1
  2014   719   673    1
  2015   266   220    1
  2016  3818  3872    1
  2017  3818  3822    2
  2018  3365  3419    1
  2019  3365  3369    2
  2020  2912  2966    1
  2021  2912  2916    2
  2022  2537  2485    1
  2023  2084  2032    1
  2024  1631  1579    1
  2025  2531  2485    1
  2026  2078  2032    1
  2027  1625  1579    1
  2028  3896  3844    1
  2029  3443  3391    1
  2030  2990  2938    1
  2031  3890  3844    1
  2032  1180  1124    1
  2033  3437  3391    1
  2034   727   671    1
  2035  2984  2938    1
  2036   274   218    1
  2037  1170  1124    1
  2038   717   671    1
  2039   264   218    1
  2040  2539  2483    1
  2041  2086  2030    1
  2042  1633  1577    1
  2043  1126  1118    2
  2044   673   665    1
  2045   220   212    1
  2046  2529  2483    1
  2047  2076  2030    1
  2048  1623  1577    1
  2049  3898  3842    1
  2050  3445  3389    1
  2051  2992  2936    1
  2052  2485  2477    2
  2053  1111  1107    1
  2054  2032  2024    1
  2055   658   654   ar
  2056   658  1113   ar
  2057  1579  1571    1
  2058   205   201   ar
  2059   205   660   ar
  2060  3888  3842    1
  2061  3435  3389    1
  2062  2982  2936    1
  2063  1124  1116    1
  2064   671   663    1
  2065  1114  1104   ar
  2066  1114  2468   ar
  2067   218   210    1
  2068   661   651   ar
  2069   661  2015   ar
  2070   208   198   ar
  2071   208  1562   ar
  2072  3844  3836    2
  2073  2470  2466    1
  2074  3391  3383    2
  2075  2017  2013   ar
  2076  2017  2472   ar
  2077  2938  2930    2
  2078  1564  1560   ar
  2079  1564  2019   ar
  2080  2483  2475    1
  2081  2030  2022    1
  2082  2473  2463   ar
  2083  2473  3827   ar
  2084  1577  1569    1
  2085  2020  2010   ar
  2086  2020  3374   ar
  2087  1567  1557   ar
  2088  1567  2921   ar
  2089  3829  3825    1
  2090  3376  3372   ar
  2091  3376  3831   ar
  2092  1095  1151    1
  2093  2923  2919   ar
  2094  2923  3378   ar
  2095   642   698    1
  2096   189   245    1
  2097  3842  3834    1
  2098  3389  3381    1
  2099  3832  3822    1
  2100  2936  2928    1
  2101  3379  3369    1
  2102  2926  2916    1
  2103  2454  2510    1
  2104  2001  2057    1
  2105  1548  1604    1
  2106  1107  1112    1
  2107   654   659   ar
  2108   201   206   ar
  2109  3813  3869    1
  2110  3360  3416    1
  2111  2907  2963    1
  2112  1104  1108   ar
  2113   651   655   ar
  2114   198   202   ar
  2115  2466  2471    1
  2116  2013  2018   ar
  2117  1560  1565   ar
  2118  1089  1148    1
  2119   636   695    1
  2120   183   242    1
  2121  2463  2467   ar
  2122  2010  2014   ar
  2123  1557  1561   ar
  2124  3825  3830    1
  2125  3372  3377   ar
  2126  2919  2924   ar
  2127  2448  2507    1
  2128  1995  2054    1
  2129  1542  1601    1
  2130  1086  1109    1
  2131   633   656    1
  2132   180   203    1
  2133  1068  1134    1
  2134   615   681    1
  2135   162   228    1
  2136  3822  3826    1
  2137  3369  3373    1
  2138  2916  2920    1
  2139  3807  3866    1
  2140  3354  3413    1
  2141  2901  2960    1
  2142  1118  1134    1
  2143  1118  1140    1
  2144   665   681   ar
  2145   665   687   ar
  2146   212   228   ar
  2147   212   234   ar
  2148  1075  1142    1
  2149   622   689    1
  2150   169   236    1
  2151  2445  2468    1
  2152  1992  2015    1
  2153  1539  1562    1
  2154  2427  2493    1
  2155  1974  2040    1
  2156  1521  1587    1
  2157  1116  1142   ar
  2158  1116  1132   ar
  2159  1082  1113    1
  2160   663   689   ar
  2161   663   679   ar
  2162   629   660    1
  2163   210   236   ar
  2164   210   226   ar
  2165   176   207    1
  2166  2477  2493    1
  2167  2477  2499    1
  2168  2024  2040   ar
  2169  2024  2046   ar
  2170  1571  1587   ar
  2171  1571  1593   ar
  2172  2434  2501    1
  2173  1981  2048    1
  2174  1528  1595    1
  2175  3804  3827    1
  2176  3351  3374    1
  2177  2898  2921    1
  2178  1151  1094    1
  2179  1151  1140    1
  2180   698   641    1
  2181   698   687    1
  2182   245   188    1
  2183   245   234    1
  2184  3786  3852    1
  2185  3333  3399    1
  2186  2880  2946    1
  2187  2475  2501   ar
  2188  2475  2491   ar
  2189  2441  2472    1
  2190  2022  2048   ar
  2191  2022  2038   ar
  2192  1988  2019    1
  2193  1569  1595   ar
  2194  1569  1585   ar
  2195  1535  1566    1
  2196  3836  3852    1
  2197  3836  3858    1
  2198  3383  3399    1
  2199  3383  3405    1
  2200  2930  2946    1
  2201  2930  2952    1
  2202  3793  3860    1
  2203  3340  3407    1
  2204  2887  2954    1
  2205  1109  1105    1
  2206   656   652    1
  2207   203   199    1
  2208  2510  2453    1
  2209  2510  2499    1
  2210  2057  2000    1
  2211  2057  2046    1
  2212  1604  1547    1
  2213  1604  1593    1
  2214  3834  3860   ar
  2215  3834  3850   ar
  2216  3800  3831    1
  2217  3381  3407   ar
  2218  3381  3397   ar
  2219  3347  3378    1
  2220  2928  2954   ar
  2221  2928  2944   ar
  2222  2894  2925    1
  2223   681  2500   ar
  2224  1142  1133   ar
  2225   228  2047   ar
  2226   689   680   ar
  2227   236   227   ar
  2228  1113  1106   ar
  2229   660   653   ar
  2230   207   200    1
  2231  2468  2464   ar
  2232  2015  2011   ar
  2233  1562  1558   ar
  2234  1148  1088    1
  2235  1148  1132    1
  2236   695   635    1
  2237   695   679    1
  2238   242   182    1
  2239   242   226    1
  2240  3869  3812    1
  2241  3869  3858    1
  2242  3416  3359    1
  2243  3416  3405    1
  2244  2963  2906    1
  2245  2963  2952    1
  2246   687  2494   ar
  2247   234  2041   ar
  2248  2040  3859   ar
  2249  2501  2492   ar
  2250  1587  3406   ar
  2251  2048  2039   ar
  2252  1595  1586   ar
  2253  2472  2465   ar
  2254  2019  2012   ar
  2255  1566  1559    1
  2256  3827  3823   ar
  2257  3374  3370   ar
  2258  2921  2917   ar
  2259  2507  2447    1
  2260  2507  2491    1
  2261  2054  1994    1
  2262  2054  2038    1
  2263  1601  1541    1
  2264  1601  1585    1
  2265  1132  1143   ar
  2266   679   690   ar
  2267   226   237   ar
  2268  2046  3853   ar
  2269  1593  3400   ar
  2270  3860  3851   ar
  2271  3407  3398   ar
  2272  2954  2945   ar
  2273  3831  3824   ar
  2274  3378  3371   ar
  2275  2925  2918    1
  2276  3866  3806    1
  2277  3866  3850    1
  2278  3413  3353    1
  2279  3413  3397    1
  2280  2960  2900    1
  2281  2960  2944    1
  2282  2491  2502   ar
  2283  2038  2049   ar
  2284  1585  1596   ar
  2285  3850  3861   ar
  2286  3397  3408   ar
  2287  2944  2955   ar
  2288  1133  1066    1
  2289  1133  1117   ar
  2290   680   613    1
  2291   680   664   ar
  2292   227   160    1
  2293   227   211   ar
  2294  1097  1152    1
  2295   644   699    1
  2296   191   246    1
  2297  1141  1077    1
  2298  1141  1119    1
  2299   688   624    1
  2300   688   666    1
  2301   235   171    1
  2302   235   213    1
  2303  1112  1083    1
  2304   659   630    1
  2305   659  1110   ar
  2306   206   177    1
  2307   206   657   ar
  2308  2492  2425    1
  2309  2492  2476   ar
  2310  2039  1972    1
  2311  2039  2023   ar
  2312  1586  1519    1
  2313  1586  1570   ar
  2314  2456  2511    1
  2315  2003  2058    1
  2316  1550  1605    1
  2317  1135  1119    1
  2318  1135  1067    1
  2319   682   666    1
  2320   682   614    1
  2321  2500  2436    1
  2322  2500  2478   ar
  2323   229   213    1
  2324   229   161    1
  2325  2047  1983    1
  2326  2047  2025   ar
  2327  1594  1530    1
  2328  1594  1572    1
  2329  1143  1117   ar
  2330  1143  1076    1
  2331   690   664   ar
  2332   690   623    1
  2333   237   211   ar
  2334   237   170    1
  2335  2471  2442    1
  2336  2018  1989    1
  2337  2018  2469   ar
  2338  1565  1536    1
  2339  1565  2016   ar
  2340  3851  3784    1
  2341  3851  3835   ar
  2342  3398  3331    1
  2343  3398  3382   ar
  2344  2945  2878    1
  2345  2945  2929   ar
  2346  3815  3870    1
  2347  3362  3417    1
  2348  2909  2964    1
  2349  2494  2478   ar
  2350  2494  2426    1
  2351  2041  2025   ar
  2352  2041  1973    1
  2353  3859  3795    1
  2354  3859  3837   ar
  2355  1588  1572    1
  2356  1588  1520    1
  2357  3406  3342    1
  2358  3406  3384   ar
  2359  2953  2889    1
  2360  2953  2931    1
  2361  1108  1152    1
  2362  1108  2474   ar
  2363   655   699    1
  2364   655  2021   ar
  2365   202   246    1
  2366   202  1568   ar
  2367  2502  2476   ar
  2368  2502  2435    1
  2369  2049  2023   ar
  2370  2049  1982    1
  2371  1596  1570   ar
  2372  1596  1529    1
  2373  3830  3801    1
  2374  3377  3348    1
  2375  3377  3828   ar
  2376  2924  2895    1
  2377  2924  3375   ar
  2378  3853  3837   ar
  2379  3853  3785    1
  2380  3400  3384   ar
  2381  3400  3332    1
  2382  2947  2931    1
  2383  2947  2879    1
  2384  2467  2511    1
  2385  2467  3833   ar
  2386  2014  2058    1
  2387  2014  3380   ar
  2388  1561  1605    1
  2389  1561  2927   ar
  2390  1117  1125    1
  2391   664   672    1
  2392   211   219    1
  2393  3861  3835   ar
  2394  3861  3794    1
  2395  3408  3382   ar
  2396  3408  3341    1
  2397  2955  2929   ar
  2398  2955  2888    1
  2399  1119  1127    2
  2400   666   674    2
  2401   213   221    2
  2402  3826  3870    1
  2403  3373  3417    1
  2404  2920  2964    1
  2405  2476  2484    1
  2406  2023  2031    1
  2407  1570  1578    1
  2408  2478  2486    1
  2409  2025  2033    1
  2410  1572  1580    2
  2411  3835  3843    1
  2412  3382  3390    1
  2413  2929  2937    1
  2414  3837  3845    1
  2415  3384  3392    1
  2416  2931  2939    2
  2417  1152  1096    1
  2418   699   643    1
  2419  1105  1115    1
  2420  1105  1101    2
  2421   246   190    1
  2422   652   662    1
  2423   652   648    2
  2424   199   209    1
  2425   199   195    2
  2426  1106  1110   ar
  2427  1106  1102    1
  2428   653   657   ar
  2429   653   649    1
  2430   200   204    1
  2431   200   196    2
  2432  2511  2455    1
  2433  2058  2002    1
  2434  2464  2474   ar
  2435  2464  2460    1
  2436  1605  1549    1
  2437  2011  2021   ar
  2438  2011  2007    1
  2439  1558  1568   ar
  2440  1558  1554    1
  2441  2465  2469   ar
  2442  2465  2461    1
  2443  2012  2016   ar
  2444  2012  2008    1
  2445  1559  1563    1
  2446  1559  1555    2
  2447  3870  3814    1
  2448  3417  3361    1
  2449  3823  3833   ar
  2450  3823  3819    1
  2451  2964  2908    1
  2452  3370  3380   ar
  2453  3370  3366    1
  2454  2917  2927   ar
  2455  2917  2913    1
  2456  3824  3828   ar
  2457  3824  3820    1
  2458  3371  3375   ar
  2459  3371  3367    1
  2460  2918  2922    1
  2461  2918  2914    2
  2462  1125  1171    1
  2463  1125  1181    1
  2464   672   718    1
  2465   672   728    1
  2466   219   265    1
  2467   219   275    1
  2468  1115  1084    1
  2469   662   631    1
  2470   209   178    1
  2471  2484  2530    1
  2472  2484  2540    1
  2473  2031  2077    1
  2474  2031  2087    1
  2475  1578  1624    1
  2476  1578  1634    1
  2477  1110  1153    1
  2478   657   700    1
  2479   204   247    1
  2480  2474  2443    1
  2481  2021  1990    1
  2482  1568  1537    1
  2483  1127  1179    1
  2484  1127  1173    1
  2485   674   726    1
  2486   674   720    1
  2487   221   273    1
  2488   221   267    1
  2489  1171  1064    1
  2490   718   611    1
  2491   265   158    1
  2492  3843  3889    1
  2493  3843  3899    1
  2494  3390  3436    1
  2495  3390  3446    1
  2496  2937  2983    1
  2497  2937  2993    1
  2498  2469  2512    1
  2499  2016  2059    1
  2500  1563  1606    1
  2501  3833  3802    1
  2502  3380  3349    1
  2503  2927  2896    1
  2504  2486  2538    1
  2505  2486  2532    1
  2506  2033  2085    1
  2507  2033  2079    1
  2508  1580  1632    1
  2509  1580  1626    1
  2510  2530  2423    1
  2511  2077  1970    1
  2512  1624  1517    1
  2513  3828  3871    1
  2514  3375  3418    1
  2515  2922  2965    1
  2516  1155  1101    1
  2517  1155  1064    1
  2518   702   648    1
  2519   702   611    1
  2520   249   195    1
  2521   249   158    1
  2522  1181  1060    1
  2523   728   607    1
  2524   275   154    1
  2525  1159  1102    1
  2526  1159  1060    1
  2527   706   649    1
  2528   706   607    1
  2529   253   196    1
  2530   253   154    1
  2531  3845  3897    1
  2532  3845  3891    1
  2533  3392  3444    1
  2534  3392  3438    1
  2535  2939  2991    1
  2536  2939  2985    1
  2537  3889  3782    1
  2538  3436  3329    1
  2539  2983  2876    1
  2540  1179  1060    1
  2541   726   607    1
  2542   273   154    1
  2543  2514  2460    1
  2544  2514  2423    1
  2545  2061  2007    1
  2546  2061  1970    1
  2547  1608  1554    1
  2548  1608  1517    1
  2549  2540  2419    1
  2550  2087  1966    1
  2551  1634  1513    1
  2552  2518  2461    1
  2553  2518  2419    1
  2554  2065  2008    1
  2555  2065  1966    1
  2556  1612  1555    1
  2557  1612  1513    1
  2558  2538  2419    1
  2559  2085  1966    1
  2560  1632  1513    1
  2561  3873  3819    1
  2562  3873  3782    1
  2563  3420  3366    1
  2564  3420  3329    1
  2565  2967  2913    1
  2566  2967  2876    1
  2567  3899  3778    1
  2568  3446  3325    1
  2569  2993  2872    1
  2570  1173  1064    1
  2571   720   611    1
  2572   267   158    1
  2573  3877  3820    1
  2574  3877  3778    1
  2575  3424  3367    1
  2576  3424  3325    1
  2577  2971  2914    1
  2578  2971  2872    1
  2579  3897  3778    1
  2580  3444  3325    1
  2581  2991  2872    1
  2582  2532  2423    1
  2583  2079  1970    1
  2584  1626  1517    1
  2585  1101  1161    1
  2586   648   708    1
  2587   195   255    1
  2588  1102  1156    1
  2589   649   703    1
  2590   196   250    1
  2591  3891  3782    1
  2592  3438  3329    1
  2593  2985  2876    1
  2594  2460  2520    1
  2595  2007  2067    1
  2596  1554  1614    1
  2597  2461  2515    1
  2598  2008  2062    1
  2599  1555  1609    1
  2600  3819  3879    1
  2601  3366  3426    1
  2602  2913  2973    1
  2603  3820  3874    1
  2604  3367  3421    1
  2605  2914  2968    1
  2606  1153  1098    1
  2607  1153  1099    1
  2608   700   645    1
  2609   700   646    1
  2610   247   192    1
  2611   247   193    1
  2612  1202  1197    1
  2613   749   744    1
  2614   296   291    1
  2615  2512  2457    1
  2616  2512  2458    1
  2617  2059  2004    1
  2618  2059  2005    1
  2619  1606  1551    1
  2620  1606  1552    1
  2621  2561  2556    1
  2622  2108  2103    1
  2623  1655  1650    1
  2624  1193  1197    1
  2625   740   744    1
  2626   287   291    1
  2627  3871  3816    1
  2628  3871  3817    1
  2629  3418  3363    1
  2630  3418  3364    1
  2631  2965  2910    1
  2632  2965  2911    1
  2633  1064  1187    1
  2634  1064  1163    1
  2635  1064  1165    1
  2636  3920  3915    1
  2637   611   734    1
  2638   611   710    1
  2639   611   712    1
  2640  3467  3462    1
  2641   158   281    1
  2642   158   257    1
  2643   158   259    1
  2644  1060  1166    1
  2645  1060  1168    1
  2646  3014  3009    1
  2647   607   713    1
  2648   607   715    1
  2649   154   260    1
  2650   154   262    1
  2651  2552  2556    1
  2652  2099  2103    1
  2653  1646  1650    1
  2654  2423  2546    1
  2655  2423  2522    1
  2656  2423  2524    1
  2657  1970  2093    1
  2658  1970  2069    1
  2659  1970  2071    1
  2660  1517  1640    1
  2661  1517  1616    1
  2662  1517  1618    1
  2663  2419  2525    1
  2664  2419  2527    1
  2665  1966  2072    1
  2666  1966  2074    1
  2667  1513  1619    1
  2668  1513  1621    1
  2669  3911  3915    1
  2670  3458  3462    1
  2671  3005  3009    1
  2672  3782  3905    1
  2673  3782  3881    1
  2674  3782  3883    1
  2675  3329  3452    1
  2676  3329  3428    1
  2677  3329  3430    1
  2678  2876  2999    1
  2679  2876  2975    1
  2680  2876  2977    1
  2681  3778  3884    1
  2682  3778  3886    1
  2683  3325  3431    1
  2684  3325  3433    1
  2685  2872  2978    1
  2686  2872  2980    1
  2687  1205  1204    1
  2688   752   751    1
  2689   299   298    1
  2690  1161  1058    1
  2691   708   605    1
  2692   255   152    1
  2693  2564  2563    1
  2694  2111  2110    1
  2695  1658  1657    1
  2696  1156  1063    1
  2697   703   610    1
  2698   250   157    1
  2699  2520  2417    1
  2700  2067  1964    1
  2701  1614  1511    1
  2702  1092  1150    1
  2703   639   697    1
  2704   186   244    1
  2705  3923  3922    1
  2706  3470  3469    1
  2707  3017  3016    1
  2708  1197  1204    1
  2709  1197  1198    1
  2710   744   751    1
  2711   744   745    1
  2712   291   298    1
  2713   291   292    1
  2714  2515  2422    1
  2715  2062  1969    1
  2716  1609  1516    1
  2717  3879  3776    1
  2718  3426  3323    1
  2719  2973  2870    1
  2720  2451  2509    1
  2721  1998  2056    1
  2722  1545  1603    1
  2723  2556  2563    1
  2724  2556  2557    1
  2725  2103  2110    1
  2726  2103  2104    1
  2727  1650  1657    1
  2728  1650  1651    1
  2729  3874  3781    1
  2730  3421  3328    1
  2731  2968  2875    1
  2732  1191  1194    1
  2733   738   741    1
  2734   285   288    1
  2735  3810  3868    1
  2736  3357  3415    1
  2737  2904  2962    1
  2738  3915  3922    1
  2739  3915  3916    1
  2740  3462  3469    1
  2741  3462  3463    1
  2742  3009  3016    1
  2743  3009  3010    1
  2744  2550  2553    1
  2745  2097  2100    1
  2746  1644  1647    1
  2747  3909  3912    1
  2748  3456  3459    1
  2749  3003  3006    1
  2750  1187  1080    1
  2751   734   627    1
  2752   281   174    1
  2753  2546  2439    1
  2754  2093  1986    1
  2755  1640  1533    1
  2756  1163  1058    1
  2757   710   605    1
  2758   257   152    1
  2759  1166  1063    1
  2760   713   610    1
  2761   260   157    1
  2762  1204  1208    1
  2763  1204  1200    1
  2764   751   755    1
  2765   751   747    1
  2766   298   302    1
  2767   298   294    1
  2768  3905  3798    1
  2769  3452  3345    1
  2770  2999  2892    1
  2771  2522  2417    1
  2772  2069  1964    1
  2773  1616  1511    1
  2774  2525  2422    1
  2775  2072  1969    1
  2776  1619  1516    1
  2777  2563  2567    1
  2778  2563  2559    1
  2779  2110  2114    1
  2780  2110  2106    1
  2781  1657  1661    1
  2782  1657  1653    1
  2783  1165  1058    1
  2784   712   605    1
  2785   259   152    1
  2786  1093  1150    1
  2787   640   697    1
  2788   187   244    1
  2789  3881  3776    1
  2790  3428  3323    1
  2791  2975  2870    1
  2792  3884  3781    1
  2793  3431  3328    1
  2794  2978  2875    1
  2795  1150  1144    1
  2796   697   691    1
  2797   244   238    1
  2798  1168  1063    1
  2799   715   610    1
  2800  3922  3926    1
  2801  3922  3918    1
  2802   262   157    1
  2803  3469  3473    1
  2804  3469  3465    1
  2805  3016  3020    1
  2806  3016  3012    1
  2807  2524  2417    1
  2808  2071  1964    1
  2809  1618  1511    1
  2810  2452  2509    1
  2811  1999  2056    1
  2812  1546  1603    1
  2813  2509  2503    1
  2814  2056  2050    1
  2815  1603  1597    1
  2816  2527  2422    1
  2817  2074  1969    1
  2818  1621  1516    1
  2819  3883  3776    1
  2820  3430  3323    1
  2821  2977  2870    1
  2822  3811  3868    1
  2823  3358  3415    1
  2824  2905  2962    1
  2825  3868  3862    1
  2826  3415  3409    1
  2827  2962  2956    1
  2828  3886  3781    1
  2829  3433  3328    1
  2830  2980  2875    1
  2831  1071  1139    1
  2832   618   686    1
  2833   165   233    1
  2834  1194  1200    1
  2835  1194  1192    2
  2836   741   747    1
  2837   741   739    2
  2838   288   294    1
  2839   288   286    2
  2840  2430  2498    1
  2841  1977  2045    1
  2842  1524  1592    1
  2843  1073  1146    1
  2844   620   693    1
  2845   167   240    1
  2846  1069  1137    1
  2847   616   684    1
  2848   163   231    1
  2849  2553  2559    1
  2850  2553  2551    2
  2851  2100  2106    1
  2852  2100  2098    2
  2853  1647  1653    1
  2854  1647  1645    2
  2855  3789  3857    1
  2856  3336  3404    1
  2857  2883  2951    1
  2858  2432  2505    1
  2859  1979  2052    1
  2860  1526  1599    1
  2861  2428  2496    1
  2862  1975  2043    1
  2863  1522  1590    1
  2864  3912  3918    1
  2865  3912  3910    2
  2866  3459  3465    1
  2867  3459  3457    2
  2868  3006  3012    1
  2869  3006  3004    2
  2870  3791  3864    1
  2871  3338  3411    1
  2872  2885  2958    1
  2873  1058  1183    1
  2874  1058  1185    1
  2875   605   730    1
  2876   605   732    1
  2877   152   277    1
  2878   152   279    1
  2879  3787  3855    1
  2880  3334  3402    1
  2881  2881  2949    1
  2882  1063  1176    1
  2883  1063  1174    1
  2884  1063  1339    1
  2885   610   723    1
  2886   610   721    1
  2887   610   886    1
  2888   157   270    1
  2889   157   268    1
  2890   157   433    1
  2891  1200  1203    1
  2892   747   750    1
  2893   294   297    1
  2894  2417  2542    1
  2895  2417  2544    1
  2896  1964  2089    1
  2897  1964  2091    1
  2898  1511  1636    1
  2899  1511  1638    1
  2900  2422  2535    1
  2901  2422  2533    1
  2902  2422  2698    1
  2903  1969  2082    1
  2904  1969  2080    1
  2905  1969  2245    1
  2906  1516  1629    1
  2907  1516  1627    1
  2908  1516  1792    1
  2909  2559  2562    1
  2910  2106  2109    1
  2911  1653  1656    1
  2912  3776  3901    1
  2913  3776  3903    1
  2914  3323  3448    1
  2915  3323  3450    1
  2916  2870  2995    1
  2917  2870  2997    1
  2918  3781  3894    1
  2919  3781  3892    1
  2920  3781  4057    1
  2921  3328  3441    1
  2922  3328  3439    1
  2923  3328  3604    1
  2924  2875  2988    1
  2925  2875  2986    1
  2926  2875  3151    1
  2927  3918  3921    1
  2928  3465  3468    1
  2929  3012  3015    1
  2930  1139  1274    1
  2931   686   821    1
  2932   233   368    1
  2933  1144  2498   ar
  2934  1144  1273   ar
  2935   691  2045   ar
  2936   691   820   ar
  2937   238  1592   ar
  2938   238   367   ar
  2939  2498  2633   ar
  2940  2045  2180   ar
  2941  1592  1727   ar
  2942  2503  3857   ar
  2943  2503  2632   ar
  2944  2050  3404   ar
  2945  2050  2179   ar
  2946  1597  2951   ar
  2947  1597  1726   ar
  2948  1146   684   ar
  2949  1146  1271   ar
  2950   693   231   ar
  2951   693   818   ar
  2952   240   365    1
  2953  1176  1281    1
  2954   723   828    1
  2955   270   375    1
  2956  1183  1282    1
  2957   730   829    1
  2958   277   376    1
  2959  1137  1272    1
  2960   684   819   ar
  2961   231   366   ar
  2962  3857  3992   ar
  2963  3404  3539   ar
  2964  2951  3086   ar
  2965  1185  1280    1
  2966   732   827    1
  2967   279   374    1
  2968  3862  3991    1
  2969  3409  3538    1
  2970  2956  3085    1
  2971  1174  1279    1
  2972   721   826    1
  2973   268   373    1
  2974  2505  2043   ar
  2975  2505  2630   ar
  2976  2052  1590   ar
  2977  2052  2177   ar
  2978  1599  1724    1
  2979  2535  2640    1
  2980  2082  2187    1
  2981  1629  1734    1
  2982  2542  2641    1
  2983  2089  2188    1
  2984  1636  1735    1
  2985  2496  2631    1
  2986  2043  2178   ar
  2987  1590  1725   ar
  2988  2544  2639    1
  2989  2091  2186    1
  2990  1638  1733    1
  2991  1192  1190    1
  2992  1192  1196    1
  2993   739   737    1
  2994   739   743    1
  2995   286   284    1
  2996   286   290    1
  2997  2533  2638    1
  2998  2080  2185    1
  2999  1627  1732    1
  3000  3864  3402   ar
  3001  3864  3989   ar
  3002  3411  2949   ar
  3003  3411  3536   ar
  3004  2958  3083    1
  3005  3894  3999    1
  3006  3441  3546    1
  3007  2988  3093    1
  3008  3901  4000    1
  3009  3448  3547    1
  3010  2995  3094    1
  3011  3855  3990    1
  3012  3402  3537   ar
  3013  2949  3084   ar
  3014  3903  3998    1
  3015  3450  3545    1
  3016  2997  3092    1
  3017  2551  2549    1
  3018  2551  2555    1
  3019  2098  2096    1
  3020  2098  2102    1
  3021  1645  1643    1
  3022  1645  1649    1
  3023  3892  3997    1
  3024  3439  3544    1
  3025  2986  3091    1
  3026  3910  3908    1
  3027  3910  3914    1
  3028  3457  3455    1
  3029  3457  3461    1
  3030  3004  3002    1
  3031  3004  3008    1
  3032  1203  1196    1
  3033  1203  1207    1
  3034   750   743    1
  3035   750   754    1
  3036   297   290    1
  3037   297   301    1
  3038  2562  2555    1
  3039  2562  2566    1
  3040  2109  2102    1
  3041  2109  2113    1
  3042  1656  1649    1
  3043  1656  1660    1
  3044  3921  3914    1
  3045  3921  3925    1
  3046  3468  3461    1
  3047  3468  3472    1
  3048  3015  3008    1
  3049  3015  3019    1
  3050  1229  1340    1
  3051   776   887    1
  3052   323   434    1
  3053  1274  1282    2
  3054  1274  1296    1
  3055   821   829    2
  3056   821   843    1
  3057   368   376    2
  3058   368   390    1
  3059  1273  1281    1
  3060  1273  1289   ar
  3061   820   828    1
  3062   820   836   ar
  3063   367   375    1
  3064   367   383   ar
  3065  1281  1333    1
  3066  1282  1328    1
  3067   828   880    1
  3068   829   875    1
  3069   375   427    1
  3070   376   422    1
  3071  1340  1213    1
  3072   887   760    1
  3073   434   307    1
  3074  2588  2699    1
  3075  2135  2246    1
  3076  1682  1793    1
  3077  2633  2641    1
  3078  2633  2655   ar
  3079  2180  2188    1
  3080  2180  2202   ar
  3081  1727  1735    1
  3082  1727  1749   ar
  3083  2632  2640    1
  3084  2632  2648   ar
  3085  2179  2187    1
  3086  2179  2195   ar
  3087  1726  1734    1
  3088  1726  1742   ar
  3089  1339  1230    1
  3090   886   777    1
  3091   433   324    1
  3092  1280  1272    2
  3093  1280  1326    1
  3094   827   819    1
  3095   827   873    1
  3096   374   366    1
  3097   374   420    1
  3098  1271  1279    1
  3099  1271  1287   ar
  3100   818   826    1
  3101   818   834   ar
  3102   365   373    2
  3103   365   381    1
  3104  1279  1335    1
  3105  1196  1199    1
  3106  2640  2692    1
  3107   826   882    1
  3108  2641  2687    1
  3109   743   746    1
  3110  2187  2239    1
  3111   373   429    1
  3112  2188  2234    1
  3113   290   293    1
  3114  1734  1786    1
  3115  1735  1781    1
  3116  2699  2572    1
  3117  2246  2119    1
  3118  1793  1666    1
  3119  3947  4058    1
  3120  3494  3605    1
  3121  3041  3152    1
  3122  1272  1298    1
  3123   819   845   ar
  3124   366   392   ar
  3125  3992  4000    1
  3126  3992  4014   ar
  3127  3539  3547    1
  3128  3539  3561   ar
  3129  3086  3094    1
  3130  3086  3108   ar
  3131  3991  3999    2
  3132  3991  4007    1
  3133  3538  3546    2
  3134  3538  3554    1
  3135  3085  3093    2
  3136  3085  3101    1
  3137  2698  2589    1
  3138  2245  2136    1
  3139  1792  1683    1
  3140  2639  2631    2
  3141  2639  2685    1
  3142  2186  2178    1
  3143  2186  2232    1
  3144  1733  1725    1
  3145  1733  1779    1
  3146  2630  2638    1
  3147  2630  2646   ar
  3148  2177  2185    1
  3149  2177  2193   ar
  3150  1724  1732    2
  3151  1724  1740    1
  3152  2638  2694    1
  3153  2555  2558    1
  3154  3999  4051    1
  3155  2185  2241    1
  3156  4000  4046    1
  3157  2102  2105    1
  3158  3546  3598    1
  3159  1732  1788    1
  3160  3547  3593    1
  3161  1649  1652    1
  3162  3093  3145    1
  3163  3094  3140    1
  3164  4058  3931    1
  3165  3605  3478    1
  3166  3152  3025    1
  3167  2631  2657    1
  3168  2178  2204   ar
  3169  1725  1751   ar
  3170  4057  3948    1
  3171  3604  3495    1
  3172  3151  3042    1
  3173  3998  3990    2
  3174  3998  4044    1
  3175  3545  3537    1
  3176  3545  3591    1
  3177  3092  3084    1
  3178  3092  3138    1
  3179  3989  3997    1
  3180  3989  4005   ar
  3181  3536  3544    1
  3182  3536  3552   ar
  3183  3083  3091    2
  3184  3083  3099    1
  3185  3997  4053    1
  3186  3914  3917    1
  3187  3544  3600    1
  3188  3461  3464    1
  3189  3091  3147    1
  3190  3008  3011    1
  3191  3990  4016    1
  3192  3537  3563   ar
  3193  3084  3110   ar
  3194  1333  1210    1
  3195   880   757    1
  3196   427   304    1
  3197  1328  1213    1
  3198   875   760    1
  3199   422   307    1
  3200  1296  1225    1
  3201   843   772    1
  3202   390   319    1
  3203  1326  1213    1
  3204   873   760    1
  3205   420   307    1
  3206  1289  2655   ar
  3207  1289  1223    1
  3208   836  2202   ar
  3209   836   770    1
  3210   383  1749   ar
  3211   383   317    1
  3212  1335  1210    1
  3213   882   757    1
  3214   429   304    1
  3215  2692  2569    1
  3216  2239  2116    1
  3217  1786  1663    1
  3218  2687  2572    1
  3219  2234  2119    1
  3220  1781  1666    1
  3221  2655  2584    1
  3222  2202  2131    1
  3223  1749  1678    1
  3224  2685  2572    1
  3225  2232  2119    1
  3226  1779  1666    1
  3227  2648  4014   ar
  3228  2648  2582    1
  3229  2195  3561   ar
  3230  2195  2129    1
  3231  1742  3108   ar
  3232  1742  1676    1
  3233  1287   845   ar
  3234  1287  1221    1
  3235   834   392   ar
  3236   834   768    1
  3237   381   315    1
  3238  2694  2569    1
  3239  2241  2116    1
  3240  1788  1663    1
  3241  4051  3928    1
  3242  3598  3475    1
  3243  3145  3022    1
  3244  4046  3931    1
  3245  3593  3478    1
  3246  3140  3025    1
  3247  1298  1300    2
  3248  4014  3943    1
  3249   845   847    1
  3250  3561  3490    1
  3251   392   394    1
  3252  3108  3037    1
  3253  4044  3931    1
  3254  3591  3478    1
  3255  3138  3025    1
  3256  4007  3941    1
  3257  3554  3488    1
  3258  3101  3035    1
  3259  2646  2204   ar
  3260  2646  2580    1
  3261  2193  1751   ar
  3262  2193  2127    1
  3263  1740  1674    1
  3264  4053  3928    1
  3265  3600  3475    1
  3266  3147  3022    1
  3267  2657  2659    2
  3268  2204  2206    1
  3269  1751  1753    1
  3270  1199  1201    1
  3271  1199  1195    1
  3272  1199  1206    1
  3273   746   748    1
  3274   746   742    1
  3275   746   753    1
  3276   293   295    1
  3277   293   289    1
  3278   293   300    1
  3279  4005  3563   ar
  3280  4005  3939    1
  3281  3552  3110   ar
  3282  3552  3486    1
  3283  3099  3033    1
  3284  4016  4018    2
  3285  3563  3565    1
  3286  3110  3112    1
  3287  2558  2560    1
  3288  2558  2554    1
  3289  2558  2565    1
  3290  2105  2107    1
  3291  2105  2101    1
  3292  2105  2112    1
  3293  1652  1654    1
  3294  1652  1648    1
  3295  1652  1659    1
  3296  3917  3919    1
  3297  3917  3913    1
  3298  3917  3924    1
  3299  3464  3466    1
  3300  3464  3460    1
  3301  3464  3471    1
  3302  3011  3013    1
  3303  3011  3007    1
  3304  3011  3018    1
  3305  1213  1320    1
  3306  1213  1318    1
  3307  1213  1308    1
  3308   760   867    1
  3309   760   865    1
  3310   760   855    1
  3311   307   414    1
  3312   307   412    1
  3313   307   402    1
  3314  1210  1315    1
  3315  1210  1313    1
  3316  1210  1311    1
  3317   757   862    1
  3318   757   860    1
  3319   757   858    1
  3320   304   409    1
  3321   304   407    1
  3322   304   405    1
  3323  2572  2679    1
  3324  2572  2677    1
  3325  2572  2667    1
  3326  2119  2226    1
  3327  2119  2224    1
  3328  2119  2214    1
  3329  1666  1773    1
  3330  1666  1771    1
  3331  1666  1761    1
  3332  2569  2674    1
  3333  2569  2672    1
  3334  2569  2670    1
  3335  2116  2221    1
  3336  2116  2219    1
  3337  2116  2217    1
  3338  1663  1768    1
  3339  1663  1766    1
  3340  1663  1764    1
  3341  3931  4038    1
  3342  3931  4036    1
  3343  3931  4026    1
  3344  3478  3585    1
  3345  3478  3583    1
  3346  3478  3573    1
  3347  3025  3132    1
  3348  3025  3130    1
  3349  3025  3120    1
  3350  3928  4033    1
  3351  3928  4031    1
  3352  3928  4029    1
  3353  3475  3580    1
  3354  3475  3578    1
  3355  3475  3576    1
  3356  3022  3127    1
  3357  3022  3125    1
  3358  3022  3123    1
  3359  1232  1337    1
  3360   779   884    1
  3361   326   431    1
  3362  2591  2696    1
  3363  2138  2243    1
  3364  1685  1790    1
  3365  3950  4055    1
  3366  3497  3602    1
  3367  3044  3149    1
  3368  1300  1241    1
  3369   847   788    1
  3370   847  1242    1
  3371   394   335    1
  3372   394   789    1
  3373  1320  1212    1
  3374   867   759    1
  3375   414   306    1
  3376  1315  1216    1
  3377   862   763    1
  3378   409   310    1
  3379  2659  2600    1
  3380  2206  2147    1
  3381  2206  2601    1
  3382  1753  1694    1
  3383  1753  2148    1
  3384  2679  2571    1
  3385  2226  2118    1
  3386  1773  1665    1
  3387  1313  1216    1
  3388   860   763    1
  3389   407   310    1
  3390  1318  1212    1
  3391   865   759    1
  3392   412   306    1
  3393  2674  2575    1
  3394  2221  2122    1
  3395  1768  1669    1
  3396  4018  3959    1
  3397  3565  3506    1
  3398  3565  3960    1
  3399  3112  3053    1
  3400  3112  3507    1
  3401  4038  3930    1
  3402  3585  3477    1
  3403  3132  3024    1
  3404  2672  2575    1
  3405  2219  2122    1
  3406  1766  1669    1
  3407  2677  2571    1
  3408  2224  2118    1
  3409  1771  1665    1
  3410  4033  3934    1
  3411  3580  3481    1
  3412  3127  3028    1
  3413  1337  1216    1
  3414   884   763    1
  3415   431   310    1
  3416  4031  3934    1
  3417  3578  3481    1
  3418  3125  3028    1
  3419  4036  3930    1
  3420  3583  3477    1
  3421  3130  3024    1
  3422  2696  2575    1
  3423  2243  2122    1
  3424  1790  1669    1
  3425  4055  3934    1
  3426  3602  3481    1
  3427  3149  3028    1
  3428  1308  1254    1
  3429   855   801    1
  3430   402   348    1
  3431  1311  1251    1
  3432   858   798    1
  3433   405   345    1
  3434  2667  2613    1
  3435  2214  2160    1
  3436  1761  1707    1
  3437  2670  2610    1
  3438  2217  2157    1
  3439  1764  1704    1
  3440  4026  3972    1
  3441  3573  3519    1
  3442  3120  3066    1
  3443  4029  3969    1
  3444  3576  3516    1
  3445  3123  3063    1
  3446  1216  1323    1
  3447  1216  1305    1
  3448  1216  1321    1
  3449   763   870    1
  3450   763   852    1
  3451   763   868    1
  3452   310   417    1
  3453   310   399    1
  3454   310   415    1
  3455  1212  1329    1
  3456  1212  1309    1
  3457  1212  1331    1
  3458   759   876    1
  3459   759   856    1
  3460   759   878    1
  3461   306   423    1
  3462   306   403    1
  3463   306   425    1
  3464  2575  2682    1
  3465  2575  2664    1
  3466  2575  2680    1
  3467  2122  2229    1
  3468  2122  2211    1
  3469  2122  2227    1
  3470  1669  1776    1
  3471  1669  1758    1
  3472  1669  1774    1
  3473  2571  2688    1
  3474  2571  2668    1
  3475  2571  2690    1
  3476  2118  2235    1
  3477  2118  2215    1
  3478  2118  2237    1
  3479  1665  1782    1
  3480  1665  1762    1
  3481  1665  1784    1
  3482  3934  4041    1
  3483  3934  4023    1
  3484  3934  4039    1
  3485  3481  3588    1
  3486  3481  3570    1
  3487  3481  3586    1
  3488  3028  3135    1
  3489  3028  3117    1
  3490  3028  3133    1
  3491  3930  4047    1
  3492  3930  4027    1
  3493  3930  4049    1
  3494  3477  3594    1
  3495  3477  3574    1
  3496  3477  3596    1
  3497  3024  3141    1
  3498  3024  3121    1
  3499  3024  3143    1
  3500  1238  1262    1
  3501   785   809    1
  3502   332   356    1
  3503  1236  1265    1
  3504   783   812    1
  3505   330   359    1
  3506  2597  2621    1
  3507  2144  2168    1
  3508  1691  1715    1
  3509  2595  2624    1
  3510  2142  2171    1
  3511  1689  1718    1
  3512  3956  3980    1
  3513  3503  3527    1
  3514  3050  3074    1
  3515  3954  3983    1
  3516  3501  3530    1
  3517  3048  3077    1
  3518  1254  1309    1
  3519  1254  1258    2
  3520   801   856    1
  3521   801   805    1
  3522   348   403    1
  3523   348   352    1
  3524  1251  1305    1
  3525  1251  1255    1
  3526   798   852    1
  3527   798   802    1
  3528   345   399    1
  3529   345   349    1
  3530  2613  2668    1
  3531  2613  2617    2
  3532  2160  2215    1
  3533  2160  2164    1
  3534  1707  1762    1
  3535  1707  1711    1
  3536  2610  2664    1
  3537  2610  2614    1
  3538  2157  2211    1
  3539  2157  2161    1
  3540  1704  1758    1
  3541  1704  1708    1
  3542  3972  4027    1
  3543  3972  3976    2
  3544  3519  3574    1
  3545  3519  3523    1
  3546  3066  3121    1
  3547  3066  3070    1
  3548  1329  1277    1
  3549   876   824    1
  3550   423   371    1
  3551  1323  1277    1
  3552   870   824    1
  3553   417   371    1
  3554  3969  4023    1
  3555  3969  3973    2
  3556  3516  3570    1
  3557  3516  3520    2
  3558  3063  3117    1
  3559  3063  3067    2
  3560  2688  2636    1
  3561  2235  2183    1
  3562  1782  1730    1
  3563  2682  2636    1
  3564  2229  2183    1
  3565  1776  1730    1
  3566  4047  3995    1
  3567  3594  3542    1
  3568  3141  3089    1
  3569  4041  3995    1
  3570  1331  1275    1
  3571  3588  3542    1
  3572   878   822    1
  3573  3135  3089    1
  3574   425   369    1
  3575  1321  1275    1
  3576   868   822    1
  3577   415   369    1
  3578  2690  2634    1
  3579  2237  2181    1
  3580  1784  1728    1
  3581  1277  1269    2
  3582   824   816    1
  3583   371   363    1
  3584  2680  2634    1
  3585  2227  2181    1
  3586  1774  1728    1
  3587  4049  3993    1
  3588  3596  3540    1
  3589  3143  3087    1
  3590  2636  2628    2
  3591  1262  1258    1
  3592  2183  2175    1
  3593   809   805   ar
  3594   809  1264   ar
  3595  1730  1722    1
  3596   356   352   ar
  3597   356   811   ar
  3598  4039  3993    1
  3599  3586  3540    1
  3600  3133  3087    1
  3601  1275  1267    1
  3602   822   814    1
  3603  1265  1255   ar
  3604  1265  2619   ar
  3605   369   361    1
  3606   812   802   ar
  3607   812  2166   ar
  3608   359   349   ar
  3609   359  1713   ar
  3610  3995  3987    2
  3611  2621  2617    1
  3612  3542  3534    2
  3613  2168  2164   ar
  3614  2168  2623   ar
  3615  3089  3081    2
  3616  1715  1711   ar
  3617  1715  2170   ar
  3618  2634  2626    1
  3619  2181  2173    1
  3620  2624  2614   ar
  3621  2624  3978   ar
  3622  1728  1720    1
  3623  2171  2161   ar
  3624  2171  3525   ar
  3625  1718  1708   ar
  3626  1718  3072   ar
  3627  3980  3976    1
  3628  3527  3523   ar
  3629  3527  3982   ar
  3630  1246  1302    1
  3631  3074  3070   ar
  3632  3074  3529   ar
  3633   793   849    1
  3634   340   396    1
  3635  3993  3985    1
  3636  3540  3532    1
  3637  3983  3973    1
  3638  3087  3079    1
  3639  3530  3520    1
  3640  3077  3067    1
  3641  2605  2661    1
  3642  2152  2208    1
  3643  1699  1755    1
  3644  1258  1263    1
  3645   805   810   ar
  3646   352   357   ar
  3647  3964  4020    1
  3648  3511  3567    1
  3649  3058  3114    1
  3650  1255  1259   ar
  3651   802   806   ar
  3652   349   353   ar
  3653  2617  2622    1
  3654  2164  2169   ar
  3655  1711  1716   ar
  3656  1240  1299    1
  3657   787   846    1
  3658   334   393    1
  3659  2614  2618   ar
  3660  2161  2165   ar
  3661  1708  1712   ar
  3662  3976  3981    1
  3663  3523  3528   ar
  3664  3070  3075   ar
  3665  2599  2658    1
  3666  2146  2205    1
  3667  1693  1752    1
  3668  1237  1260    1
  3669   784   807    1
  3670   331   354    1
  3671  1219  1285    1
  3672   766   832    1
  3673   313   379    1
  3674  3973  3977    1
  3675  3520  3524    1
  3676  3067  3071    1
  3677  3958  4017    1
  3678  3505  3564    1
  3679  3052  3111    1
  3680  1269  1285    1
  3681  1269  1291    1
  3682   816   832   ar
  3683   816   838   ar
  3684   363   379   ar
  3685   363   385   ar
  3686  1226  1293    1
  3687   773   840    1
  3688   320   387    1
  3689  2596  2619    1
  3690  2143  2166    1
  3691  1690  1713    1
  3692  2578  2644    1
  3693  2125  2191    1
  3694  1672  1738    1
  3695  1267  1293   ar
  3696  1267  1283   ar
  3697  1233  1264    1
  3698   814   840   ar
  3699   814   830   ar
  3700   780   811    1
  3701   361   387   ar
  3702   361   377   ar
  3703   327   358    1
  3704  2628  2644    1
  3705  2628  2650    1
  3706  2175  2191   ar
  3707  2175  2197   ar
  3708  1722  1738   ar
  3709  1722  1744   ar
  3710  2585  2652    1
  3711  2132  2199    1
  3712  1679  1746    1
  3713  3955  3978    1
  3714  3502  3525    1
  3715  3049  3072    1
  3716  1302  1245    1
  3717  1302  1291    1
  3718   849   792    1
  3719   849   838    1
  3720   396   339    1
  3721   396   385    1
  3722  3937  4003    1
  3723  3484  3550    1
  3724  3031  3097    1
  3725  2626  2652   ar
  3726  2626  2642   ar
  3727  2592  2623    1
  3728  2173  2199   ar
  3729  2173  2189   ar
  3730  2139  2170    1
  3731  1720  1746   ar
  3732  1720  1736   ar
  3733  1686  1717    1
  3734  3987  4003    1
  3735  3987  4009    1
  3736  3534  3550    1
  3737  3534  3556    1
  3738  3081  3097    1
  3739  3081  3103    1
  3740  3944  4011    1
  3741  3491  3558    1
  3742  3038  3105    1
  3743  1260  1256    1
  3744   807   803    1
  3745   354   350    1
  3746  2661  2604    1
  3747  2661  2650    1
  3748  2208  2151    1
  3749  2208  2197    1
  3750  1755  1698    1
  3751  1755  1744    1
  3752  3985  4011   ar
  3753  3985  4001   ar
  3754  3951  3982    1
  3755  3532  3558   ar
  3756  3532  3548   ar
  3757  3498  3529    1
  3758  3079  3105   ar
  3759  3079  3095   ar
  3760  3045  3076    1
  3761   832  2651   ar
  3762  1293  1284   ar
  3763   379  2198   ar
  3764   840   831   ar
  3765   387   378   ar
  3766  1264  1257   ar
  3767   811   804   ar
  3768   358   351    1
  3769  2619  2615   ar
  3770  2166  2162   ar
  3771  1713  1709   ar
  3772  1299  1239    1
  3773  1299  1283    1
  3774   846   786    1
  3775   846   830    1
  3776   393   333    1
  3777   393   377    1
  3778  4020  3963    1
  3779  4020  4009    1
  3780  3567  3510    1
  3781  3567  3556    1
  3782  3114  3057    1
  3783  3114  3103    1
  3784   838  2645   ar
  3785   385  2192   ar
  3786  2191  4010   ar
  3787  2652  2643   ar
  3788  1738  3557   ar
  3789  2199  2190   ar
  3790  1746  1737   ar
  3791  2623  2616   ar
  3792  2170  2163   ar
  3793  1717  1710    1
  3794  3978  3974   ar
  3795  3525  3521   ar
  3796  3072  3068   ar
  3797  2658  2598    1
  3798  2658  2642    1
  3799  2205  2145    1
  3800  2205  2189    1
  3801  1752  1692    1
  3802  1752  1736    1
  3803  1283  1294   ar
  3804   830   841   ar
  3805   377   388   ar
  3806  2197  4004   ar
  3807  1744  3551   ar
  3808  4011  4002   ar
  3809  3558  3549   ar
  3810  3105  3096   ar
  3811  3982  3975   ar
  3812  3529  3522   ar
  3813  3076  3069    1
  3814  4017  3957    1
  3815  4017  4001    1
  3816  3564  3504    1
  3817  3564  3548    1
  3818  3111  3051    1
  3819  3111  3095    1
  3820  2642  2653   ar
  3821  2189  2200   ar
  3822  1736  1747   ar
  3823  4001  4012   ar
  3824  3548  3559   ar
  3825  3095  3106   ar
  3826  1284  1217    1
  3827  1284  1268   ar
  3828   831   764    1
  3829   831   815   ar
  3830   378   311    1
  3831   378   362   ar
  3832  1248  1303    1
  3833   795   850    1
  3834   342   397    1
  3835  1292  1228    1
  3836  1292  1270    1
  3837   839   775    1
  3838   839   817    1
  3839   386   322    1
  3840   386   364    1
  3841  1263  1234    1
  3842   810   781    1
  3843   810  1261   ar
  3844   357   328    1
  3845   357   808   ar
  3846  2643  2576    1
  3847  2643  2627   ar
  3848  2190  2123    1
  3849  2190  2174   ar
  3850  1737  1670    1
  3851  1737  1721   ar
  3852  2607  2662    1
  3853  2154  2209    1
  3854  1701  1756    1
  3855  1286  1270    1
  3856  1286  1218    1
  3857   833   817    1
  3858   833   765    1
  3859  2651  2587    1
  3860  2651  2629   ar
  3861   380   364    1
  3862   380   312    1
  3863  2198  2134    1
  3864  2198  2176   ar
  3865  1745  1681    1
  3866  1745  1723    1
  3867  1294  1268   ar
  3868  1294  1227    1
  3869   841   815   ar
  3870   841   774    1
  3871   388   362   ar
  3872   388   321    1
  3873  2622  2593    1
  3874  2169  2140    1
  3875  2169  2620   ar
  3876  1716  1687    1
  3877  1716  2167   ar
  3878  4002  3935    1
  3879  4002  3986   ar
  3880  3549  3482    1
  3881  3549  3533   ar
  3882  3096  3029    1
  3883  3096  3080   ar
  3884  3966  4021    1
  3885  3513  3568    1
  3886  3060  3115    1
  3887  2645  2629   ar
  3888  2645  2577    1
  3889  2192  2176   ar
  3890  2192  2124    1
  3891  4010  3946    1
  3892  4010  3988   ar
  3893  1739  1723    1
  3894  1739  1671    1
  3895  3557  3493    1
  3896  3557  3535   ar
  3897  3104  3040    1
  3898  3104  3082    1
  3899  1259  1303    1
  3900  1259  2625   ar
  3901   806   850    1
  3902   806  2172   ar
  3903   353   397    1
  3904   353  1719   ar
  3905  2653  2627   ar
  3906  2653  2586    1
  3907  2200  2174   ar
  3908  2200  2133    1
  3909  1747  1721   ar
  3910  1747  1680    1
  3911  3981  3952    1
  3912  3528  3499    1
  3913  3528  3979   ar
  3914  3075  3046    1
  3915  3075  3526   ar
  3916  4004  3988   ar
  3917  4004  3936    1
  3918  3551  3535   ar
  3919  3551  3483    1
  3920  3098  3082    1
  3921  3098  3030    1
  3922  2618  2662    1
  3923  2618  3984   ar
  3924  2165  2209    1
  3925  2165  3531   ar
  3926  1712  1756    1
  3927  1712  3078   ar
  3928  1268  1276    1
  3929   815   823    1
  3930   362   370    1
  3931  4012  3986   ar
  3932  4012  3945    1
  3933  3559  3533   ar
  3934  3559  3492    1
  3935  3106  3080   ar
  3936  3106  3039    1
  3937  1270  1278    2
  3938   817   825    2
  3939   364   372    2
  3940  3977  4021    1
  3941  3524  3568    1
  3942  3071  3115    1
  3943  2627  2635    1
  3944  2174  2182    1
  3945  1721  1729    1
  3946  2629  2637    1
  3947  2176  2184    1
  3948  1723  1731    2
  3949  3986  3994    1
  3950  3533  3541    1
  3951  3080  3088    1
  3952  3988  3996    1
  3953  3535  3543    1
  3954  3082  3090    2
  3955  1303  1247    1
  3956   850   794    1
  3957  1256  1266    1
  3958  1256  1252    2
  3959   397   341    1
  3960   803   813    1
  3961   803   799    2
  3962   350   360    1
  3963   350   346    2
  3964  1257  1261   ar
  3965  1257  1253    1
  3966   804   808   ar
  3967   804   800    1
  3968   351   355    1
  3969   351   347    2
  3970  2662  2606    1
  3971  2209  2153    1
  3972  2615  2625   ar
  3973  2615  2611    1
  3974  1756  1700    1
  3975  2162  2172   ar
  3976  2162  2158    1
  3977  1709  1719   ar
  3978  1709  1705    1
  3979  2616  2620   ar
  3980  2616  2612    1
  3981  2163  2167   ar
  3982  2163  2159    1
  3983  1710  1714    1
  3984  1710  1706    2
  3985  4021  3965    1
  3986  3568  3512    1
  3987  3974  3984   ar
  3988  3974  3970    1
  3989  3115  3059    1
  3990  3521  3531   ar
  3991  3521  3517    1
  3992  3068  3078   ar
  3993  3068  3064    1
  3994  3975  3979   ar
  3995  3975  3971    1
  3996  3522  3526   ar
  3997  3522  3518    1
  3998  3069  3073    1
  3999  3069  3065    2
  4000  1276  1322    1
  4001  1276  1332    1
  4002   823   869    1
  4003   823   879    1
  4004   370   416    1
  4005   370   426    1
  4006  1266  1235    1
  4007   813   782    1
  4008   360   329    1
  4009  2635  2681    1
  4010  2635  2691    1
  4011  2182  2228    1
  4012  2182  2238    1
  4013  1729  1775    1
  4014  1729  1785    1
  4015  1261  1304    1
  4016   808   851    1
  4017   355   398    1
  4018  2625  2594    1
  4019  2172  2141    1
  4020  1719  1688    1
  4021  1278  1330    1
  4022  1278  1324    1
  4023   825   877    1
  4024   825   871    1
  4025   372   424    1
  4026   372   418    1
  4027  1322  1215    1
  4028   869   762    1
  4029   416   309    1
  4030  3994  4040    1
  4031  3994  4050    1
  4032  3541  3587    1
  4033  3541  3597    1
  4034  3088  3134    1
  4035  3088  3144    1
  4036  2620  2663    1
  4037  2167  2210    1
  4038  1714  1757    1
  4039  3984  3953    1
  4040  3531  3500    1
  4041  3078  3047    1
  4042  2637  2689    1
  4043  2637  2683    1
  4044  2184  2236    1
  4045  2184  2230    1
  4046  1731  1783    1
  4047  1731  1777    1
  4048  2681  2574    1
  4049  2228  2121    1
  4050  1775  1668    1
  4051  3979  4022    1
  4052  3526  3569    1
  4053  3073  3116    1
  4054  1306  1252    1
  4055  1306  1215    1
  4056   853   799    1
  4057   853   762    1
  4058   400   346    1
  4059   400   309    1
  4060  1332  1211    1
  4061   879   758    1
  4062   426   305    1
  4063  1310  1253    1
  4064  1310  1211    1
  4065   857   800    1
  4066   857   758    1
  4067   404   347    1
  4068   404   305    1
  4069  3996  4048    1
  4070  3996  4042    1
  4071  3543  3595    1
  4072  3543  3589    1
  4073  3090  3142    1
  4074  3090  3136    1
  4075  4040  3933    1
  4076  3587  3480    1
  4077  3134  3027    1
  4078  1330  1211    1
  4079   877   758    1
  4080   424   305    1
  4081  2665  2611    1
  4082  2665  2574    1
  4083  2212  2158    1
  4084  2212  2121    1
  4085  1759  1705    1
  4086  1759  1668    1
  4087  2691  2570    1
  4088  2238  2117    1
  4089  1785  1664    1
  4090  2669  2612    1
  4091  2669  2570    1
  4092  2216  2159    1
  4093  2216  2117    1
  4094  1763  1706    1
  4095  1763  1664    1
  4096  2689  2570    1
  4097  2236  2117    1
  4098  1783  1664    1
  4099  4024  3970    1
  4100  4024  3933    1
  4101  3571  3517    1
  4102  3571  3480    1
  4103  3118  3064    1
  4104  3118  3027    1
  4105  4050  3929    1
  4106  3597  3476    1
  4107  3144  3023    1
  4108  1324  1215    1
  4109   871   762    1
  4110   418   309    1
  4111  4028  3971    1
  4112  4028  3929    1
  4113  3575  3518    1
  4114  3575  3476    1
  4115  3122  3065    1
  4116  3122  3023    1
  4117  4048  3929    1
  4118  3595  3476    1
  4119  3142  3023    1
  4120  2683  2574    1
  4121  2230  2121    1
  4122  1777  1668    1
  4123  1252  1312    1
  4124   799   859    1
  4125   346   406    1
  4126  1253  1307    1
  4127   800   854    1
  4128   347   401    1
  4129  4042  3933    1
  4130  3589  3480    1
  4131  3136  3027    1
  4132  2611  2671    1
  4133  2158  2218    1
  4134  1705  1765    1
  4135  2612  2666    1
  4136  2159  2213    1
  4137  1706  1760    1
  4138  3970  4030    1
  4139  3517  3577    1
  4140  3064  3124    1
  4141  3971  4025    1
  4142  3518  3572    1
  4143  3065  3119    1
  4144  1304  1249    1
  4145  1304  1250    1
  4146   851   796    1
  4147   851   797    1
  4148   398   343    1
  4149   398   344    1
  4150  1353  1348    1
  4151   900   895    1
  4152   447   442    1
  4153  2663  2608    1
  4154  2663  2609    1
  4155  2210  2155    1
  4156  2210  2156    1
  4157  1757  1702    1
  4158  1757  1703    1
  4159  2712  2707    1
  4160  2259  2254    1
  4161  1806  1801    1
  4162  1344  1348    1
  4163   891   895    1
  4164   438   442    1
  4165  4022  3967    1
  4166  4022  3968    1
  4167  3569  3514    1
  4168  3569  3515    1
  4169  3116  3061    1
  4170  3116  3062    1
  4171  1215  1338    1
  4172  1215  1314    1
  4173  1215  1316    1
  4174  4071  4066    1
  4175   762   885    1
  4176   762   861    1
  4177   762   863    1
  4178  3618  3613    1
  4179   309   432    1
  4180   309   408    1
  4181   309   410    1
  4182  1211  1317    1
  4183  1211  1319    1
  4184  3165  3160    1
  4185   758   864    1
  4186   758   866    1
  4187   305   411    1
  4188   305   413    1
  4189  2703  2707    1
  4190  2250  2254    1
  4191  1797  1801    1
  4192  2574  2697    1
  4193  2574  2673    1
  4194  2574  2675    1
  4195  2121  2244    1
  4196  2121  2220    1
  4197  2121  2222    1
  4198  1668  1791    1
  4199  1668  1767    1
  4200  1668  1769    1
  4201  2570  2676    1
  4202  2570  2678    1
  4203  2117  2223    1
  4204  2117  2225    1
  4205  1664  1770    1
  4206  1664  1772    1
  4207  4062  4066    1
  4208  3609  3613    1
  4209  3156  3160    1
  4210  3933  4056    1
  4211  3933  4032    1
  4212  3933  4034    1
  4213  3480  3603    1
  4214  3480  3579    1
  4215  3480  3581    1
  4216  3027  3150    1
  4217  3027  3126    1
  4218  3027  3128    1
  4219  3929  4035    1
  4220  3929  4037    1
  4221  3476  3582    1
  4222  3476  3584    1
  4223  3023  3129    1
  4224  3023  3131    1
  4225  1356  1355    1
  4226   903   902    1
  4227   450   449    1
  4228  1312  1209    1
  4229   859   756    1
  4230   406   303    1
  4231  2715  2714    1
  4232  2262  2261    1
  4233  1809  1808    1
  4234  1307  1214    1
  4235   854   761    1
  4236   401   308    1
  4237  2671  2568    1
  4238  2218  2115    1
  4239  1765  1662    1
  4240  1243  1301    1
  4241   790   848    1
  4242   337   395    1
  4243  4074  4073    1
  4244  3621  3620    1
  4245  3168  3167    1
  4246  1348  1355    1
  4247  1348  1349    1
  4248   895   902    1
  4249   895   896    1
  4250   442   449    1
  4251   442   443    1
  4252  2666  2573    1
  4253  2213  2120    1
  4254  1760  1667    1
  4255  4030  3927    1
  4256  3577  3474    1
  4257  3124  3021    1
  4258  2602  2660    1
  4259  2149  2207    1
  4260  1696  1754    1
  4261  2707  2714    1
  4262  2707  2708    1
  4263  2254  2261    1
  4264  2254  2255    1
  4265  1801  1808    1
  4266  1801  1802    1
  4267  4025  3932    1
  4268  3572  3479    1
  4269  3119  3026    1
  4270  1342  1345    1
  4271   889   892    1
  4272   436   439    1
  4273  3961  4019    1
  4274  3508  3566    1
  4275  3055  3113    1
  4276  4066  4073    1
  4277  4066  4067    1
  4278  3613  3620    1
  4279  3613  3614    1
  4280  3160  3167    1
  4281  3160  3161    1
  4282  2701  2704    1
  4283  2248  2251    1
  4284  1795  1798    1
  4285  4060  4063    1
  4286  3607  3610    1
  4287  3154  3157    1
  4288  1338  1231    1
  4289   885   778    1
  4290   432   325    1
  4291  2697  2590    1
  4292  2244  2137    1
  4293  1791  1684    1
  4294  1314  1209    1
  4295   861   756    1
  4296   408   303    1
  4297  1317  1214    1
  4298   864   761    1
  4299   411   308    1
  4300  1355  1359    1
  4301  1355  1351    1
  4302   902   906    1
  4303   902   898    1
  4304   449   453    1
  4305   449   445    1
  4306  4056  3949    1
  4307  3603  3496    1
  4308  3150  3043    1
  4309  2673  2568    1
  4310  2220  2115    1
  4311  1767  1662    1
  4312  2676  2573    1
  4313  2223  2120    1
  4314  1770  1667    1
  4315  2714  2718    1
  4316  2714  2710    1
  4317  2261  2265    1
  4318  2261  2257    1
  4319  1808  1812    1
  4320  1808  1804    1
  4321  1316  1209    1
  4322   863   756    1
  4323   410   303    1
  4324  1244  1301    1
  4325   791   848    1
  4326   338   395    1
  4327  4032  3927    1
  4328  3579  3474    1
  4329  3126  3021    1
  4330  4035  3932    1
  4331  3582  3479    1
  4332  3129  3026    1
  4333  1301  1295    1
  4334   848   842    1
  4335   395   389    1
  4336  1319  1214    1
  4337   866   761    1
  4338  4073  4077    1
  4339  4073  4069    1
  4340   413   308    1
  4341  3620  3624    1
  4342  3620  3616    1
  4343  3167  3171    1
  4344  3167  3163    1
  4345  2675  2568    1
  4346  2222  2115    1
  4347  1769  1662    1
  4348  2603  2660    1
  4349  2150  2207    1
  4350  1697  1754    1
  4351  2660  2654    1
  4352  2207  2201    1
  4353  1754  1748    1
  4354  2678  2573    1
  4355  2225  2120    1
  4356  1772  1667    1
  4357  4034  3927    1
  4358  3581  3474    1
  4359  3128  3021    1
  4360  3962  4019    1
  4361  3509  3566    1
  4362  3056  3113    1
  4363  4019  4013    1
  4364  3566  3560    1
  4365  3113  3107    1
  4366  4037  3932    1
  4367  3584  3479    1
  4368  3131  3026    1
  4369  1222  1290    1
  4370   769   837    1
  4371   316   384    1
  4372  1345  1351    1
  4373  1345  1343    2
  4374   892   898    1
  4375   892   890    2
  4376   439   445    1
  4377   439   437    2
  4378  2581  2649    1
  4379  2128  2196    1
  4380  1675  1743    1
  4381  1224  1297    1
  4382   771   844    1
  4383   318   391    1
  4384  1220  1288    1
  4385   767   835    1
  4386   314   382    1
  4387  2704  2710    1
  4388  2704  2702    2
  4389  2251  2257    1
  4390  2251  2249    2
  4391  1798  1804    1
  4392  1798  1796    2
  4393  3940  4008    1
  4394  3487  3555    1
  4395  3034  3102    1
  4396  2583  2656    1
  4397  2130  2203    1
  4398  1677  1750    1
  4399  2579  2647    1
  4400  2126  2194    1
  4401  1673  1741    1
  4402  4063  4069    1
  4403  4063  4061    2
  4404  3610  3616    1
  4405  3610  3608    2
  4406  3157  3163    1
  4407  3157  3155    2
  4408  3942  4015    1
  4409  3489  3562    1
  4410  3036  3109    1
  4411  1209  1334    1
  4412  1209  1336    1
  4413   756   881    1
  4414   756   883    1
  4415   303   428    1
  4416   303   430    1
  4417  3938  4006    1
  4418  3485  3553    1
  4419  3032  3100    1
  4420  1214  1327    1
  4421  1214  1325    1
  4422   761   874    1
  4423   761   872    1
  4424   308   421    1
  4425   308   419    1
  4426  1351  1354    1
  4427   898   901    1
  4428   445   448    1
  4429  2568  2693    1
  4430  2568  2695    1
  4431  2115  2240    1
  4432  2115  2242    1
  4433  1662  1787    1
  4434  1662  1789    1
  4435  2573  2686    1
  4436  2573  2684    1
  4437  2120  2233    1
  4438  2120  2231    1
  4439  1667  1780    1
  4440  1667  1778    1
  4441  2710  2713    1
  4442  2257  2260    1
  4443  1804  1807    1
  4444  3927  4052    1
  4445  3927  4054    1
  4446  3474  3599    1
  4447  3474  3601    1
  4448  3021  3146    1
  4449  3021  3148    1
  4450  3932  4045    1
  4451  3932  4043    1
  4452  3479  3592    1
  4453  3479  3590    1
  4454  3026  3139    1
  4455  3026  3137    1
  4456  4069  4072    1
  4457  3616  3619    1
  4458  3163  3166    1
  4459  1295  2649    2
  4460   842  2196    2
  4461   389  1743    2
  4462  2654  4008    2
  4463  2201  3555    2
  4464  1748  3102    2
  4465  1297   835    2
  4466   844   382    2
  4467  2656  2194    2
  4468  2203  1741    2
  4469  1343  1341    1
  4470  1343  1347    1
  4471   890   888    1
  4472   890   894    1
  4473   437   435    1
  4474   437   441    1
  4475  4015  3553    2
  4476  3562  3100    2
  4477  2702  2700    1
  4478  2702  2706    1
  4479  2249  2247    1
  4480  2249  2253    1
  4481  1796  1794    1
  4482  1796  1800    1
  4483  4061  4059    1
  4484  4061  4065    1
  4485  3608  3606    1
  4486  3608  3612    1
  4487  3155  3153    1
  4488  3155  3159    1
  4489  1354  1347    1
  4490  1354  1358    1
  4491   901   894    1
  4492   901   905    1
  4493   448   441    1
  4494   448   452    1
  4495  2713  2706    1
  4496  2713  2717    1
  4497  2260  2253    1
  4498  2260  2264    1
  4499  1807  1800    1
  4500  1807  1811    1
  4501  4072  4065    1
  4502  4072  4076    1
  4503  3619  3612    1
  4504  3619  3623    1
  4505  3166  3159    1
  4506  3166  3170    1
  4507  1347  1350    1
  4508   894   897    1
  4509   441   444    1
  4510  2706  2709    1
  4511  2253  2256    1
  4512  1800  1803    1
  4513  4065  4068    1
  4514  3612  3615    1
  4515  3159  3162    1
  4516  1350  1352    1
  4517  1350  1346    1
  4518  1350  1357    1
  4519   897   899    1
  4520   897   893    1
  4521   897   904    1
  4522   444   446    1
  4523   444   440    1
  4524   444   451    1
  4525  2709  2711    1
  4526  2709  2705    1
  4527  2709  2716    1
  4528  2256  2258    1
  4529  2256  2252    1
  4530  2256  2263    1
  4531  1803  1805    1
  4532  1803  1799    1
  4533  1803  1810    1
  4534  4068  4070    1
  4535  4068  4064    1
  4536  4068  4075    1
  4537  3615  3617    1
  4538  3615  3611    1
  4539  3615  3622    1
  4540  3162  3164    1
  4541  3162  3158    1
  4542  3162  3169    1
