@<TRIPOS>MOLECULE
Lattice="32.018782 0.0 0.0 -14.043870532898428 28.753623292648026 0.0 -8.625062807759862 -14.478403582935226 26.22054754850901" Properties=species:S:1:pos:R:3 i=194 E=-1376.2795438848 pbc="T T T"
 200 200 0 0 0
SMALL
GASTEIGER

@<TRIPOS>ATOM
      1 N           2.6359    3.1569   12.4449 N.pl3   1  UNL1       -0.3135
      2 N           1.3463    4.2712   13.8083 N.pl3   1  UNL1       -0.3166
      3 C           2.2948    3.3176   13.7364 C.3     1  UNL1        0.1250
      4 C           1.0738    4.7250   12.5307 C.2     1  UNL1        0.0072
      5 C           0.6793    4.7153   15.0368 C.3     1  UNL1        0.0020
      6 H           2.7106    2.7723   14.5748 H       1  UNL1        0.0746
      7 H           0.3217    5.4826   12.3468 H       1  UNL1        0.0793
      8 H           0.1770    5.6653   14.8395 H       1  UNL1        0.0428
      9 H          -0.0625    3.9663   15.3401 H       1  UNL1        0.0428
     10 H           1.4248    4.8492   15.8260 H       1  UNL1        0.0428
     11 C           1.8875    4.0315   11.6757 C.2     1  UNL1        0.0074
     12 C           5.7394    3.6875   12.2434 C.3     1  UNL1       -0.0545
     13 H           3.9768    1.6152   12.7987 H       1  UNL1        0.0464
     14 H           5.1688    4.4840   12.7427 H       1  UNL1        0.0263
     15 H           6.0810    3.0070   13.0379 H       1  UNL1        0.0263
     16 C           6.9569    4.2897   11.5262 C.3     1  UNL1       -0.0652
     17 H           6.6483    4.9880   10.7348 H       1  UNL1        0.0230
     18 H           7.5685    3.4970   11.0706 H       1  UNL1        0.0230
     19 H           7.6046    4.8441   12.2190 H       1  UNL1        0.0230
     20 C           3.6523    2.2094   11.9363 C.3     1  UNL1        0.0135
     21 C           4.8355    2.9146   11.2753 C.3     1  UNL1       -0.0374
     22 H           3.1479    1.5257   11.2399 H       1  UNL1        0.0464
     23 H           5.4209    2.1296   10.7723 H       1  UNL1        0.0280
     24 H           4.4691    3.5737   10.4748 H       1  UNL1        0.0280
     25 H           1.9873    4.0758   10.5992 H       1  UNL1        0.0793
     26 N          -1.6766   -4.0823   25.5552 N.pl3   2  UNL2       -0.3135
     27 N          -2.9662   -2.9680   26.9185 N.pl3   2  UNL2       -0.3166
     28 C          -2.0178   -3.9216   26.8467 C.3     2  UNL2        0.1250
     29 C          -3.2388   -2.5142   25.6409 C.2     2  UNL2        0.0072
     30 C          -3.6332   -2.5239   28.1471 C.3     2  UNL2        0.0020
     31 H          -1.6019   -4.4669   27.6851 H       2  UNL2        0.0746
     32 H          -3.9908   -1.7566   25.4570 H       2  UNL2        0.0793
     33 H          -4.1355   -1.5739   27.9498 H       2  UNL2        0.0428
     34 H          -4.3751   -3.2729   28.4503 H       2  UNL2        0.0428
     35 H          -2.8877   -2.3900   28.9362 H       2  UNL2        0.0428
     36 C          -2.4250   -3.2077   24.7859 C.2     2  UNL2        0.0074
     37 C           1.4269   -3.5517   25.3536 C.3     2  UNL2       -0.0545
     38 H          -0.3358   -5.6240   25.9090 H       2  UNL2        0.0464
     39 H           0.8563   -2.7552   25.8530 H       2  UNL2        0.0263
     40 H           1.7685   -4.2322   26.1481 H       2  UNL2        0.0263
     41 C           2.6444   -2.9495   24.6365 C.3     2  UNL2       -0.0652
     42 H           2.3358   -2.2512   23.8451 H       2  UNL2        0.0230
     43 H           3.2560   -3.7422   24.1809 H       2  UNL2        0.0230
     44 H           3.2921   -2.3951   25.3293 H       2  UNL2        0.0230
     45 C          -0.6602   -5.0298   25.0466 C.3     2  UNL2        0.0135
     46 C           0.5230   -4.3246   24.3855 C.3     2  UNL2       -0.0374
     47 H          -1.1647   -5.7135   24.3502 H       2  UNL2        0.0464
     48 H           1.1084   -5.1096   23.8826 H       2  UNL2        0.0280
     49 H           0.1566   -3.6655   23.5851 H       2  UNL2        0.0280
     50 H          -2.3253   -3.1634   23.7094 H       2  UNL2        0.0793
     51 N          -4.3860   17.5337   12.4449 N.pl3   3  UNL3       -0.3135
     52 N          -5.6756   18.6480   13.8083 N.pl3   3  UNL3       -0.3166
     53 C          -4.7272   17.6944   13.7364 C.3     3  UNL3        0.1250
     54 C          -5.9482   19.1018   12.5307 C.2     3  UNL3        0.0072
     55 C          -6.3426   19.0921   15.0368 C.3     3  UNL3        0.0020
     56 H          -4.3113   17.1491   14.5748 H       3  UNL3        0.0746
     57 H          -6.7002   19.8594   12.3468 H       3  UNL3        0.0793
     58 H          -6.8449   20.0421   14.8395 H       3  UNL3        0.0428
     59 H          -7.0845   18.3431   15.3401 H       3  UNL3        0.0428
     60 H          -5.5971   19.2260   15.8260 H       3  UNL3        0.0428
     61 C          -5.1344   18.4083   11.6757 C.2     3  UNL3        0.0074
     62 C          -1.2825   18.0643   12.2434 C.3     3  UNL3       -0.0545
     63 H          -3.0452   15.9921   12.7987 H       3  UNL3        0.0464
     64 H          -1.8531   18.8608   12.7427 H       3  UNL3        0.0263
     65 H          -0.9409   17.3838   13.0379 H       3  UNL3        0.0263
     66 C          -0.0650   18.6665   11.5262 C.3     3  UNL3       -0.0652
     67 H          -0.3736   19.3649   10.7348 H       3  UNL3        0.0230
     68 H           0.5466   17.8738   11.0706 H       3  UNL3        0.0230
     69 H           0.5827   19.2209   12.2190 H       3  UNL3        0.0230
     70 C          -3.3696   16.5862   11.9363 C.3     3  UNL3        0.0135
     71 C          -2.1864   17.2914   11.2753 C.3     3  UNL3       -0.0374
     72 H          -3.8741   15.9025   11.2399 H       3  UNL3        0.0464
     73 H          -1.6010   16.5064   10.7723 H       3  UNL3        0.0280
     74 H          -2.5528   17.9506   10.4748 H       3  UNL3        0.0280
     75 H          -5.0347   18.4526   10.5992 H       3  UNL3        0.0793
     76 N          -8.6986   10.2945   25.5552 N.pl3   4  UNL4       -0.3135
     77 N          -9.9882   11.4088   26.9185 N.pl3   4  UNL4       -0.3166
     78 C          -9.0397   10.4552   26.8467 C.3     4  UNL4        0.1250
     79 C         -10.2607   11.8626   25.6409 C.2     4  UNL4        0.0072
     80 C         -10.6551   11.8529   28.1471 C.3     4  UNL4        0.0020
     81 H          -8.6239    9.9099   27.6851 H       4  UNL4        0.0746
     82 H         -11.0128   12.6202   25.4570 H       4  UNL4        0.0793
     83 H         -11.1574   12.8029   27.9498 H       4  UNL4        0.0428
     84 H         -11.3970   11.1039   28.4503 H       4  UNL4        0.0428
     85 H          -9.9097   11.9868   28.9362 H       4  UNL4        0.0428
     86 C          -9.4470   11.1691   24.7859 C.2     4  UNL4        0.0074
     87 C          -5.5950   10.8251   25.3536 C.3     4  UNL4       -0.0545
     88 H          -7.3577    8.7529   25.9090 H       4  UNL4        0.0464
     89 H          -6.1656   11.6216   25.8530 H       4  UNL4        0.0263
     90 H          -5.2534   10.1446   26.1481 H       4  UNL4        0.0263
     91 C          -4.3776   11.4273   24.6365 C.3     4  UNL4       -0.0652
     92 H          -4.6861   12.1256   23.8451 H       4  UNL4        0.0230
     93 H          -3.7660   10.6346   24.1809 H       4  UNL4        0.0230
     94 H          -3.7299   11.9817   25.3293 H       4  UNL4        0.0230
     95 C          -7.6822    9.3470   25.0466 C.3     4  UNL4        0.0135
     96 C          -6.4989   10.0522   24.3855 C.3     4  UNL4       -0.0374
     97 H          -8.1866    8.6633   24.3502 H       4  UNL4        0.0464
     98 H          -5.9136    9.2672   23.8826 H       4  UNL4        0.0280
     99 H          -6.8653   10.7114   23.5851 H       4  UNL4        0.0280
    100 H          -9.3472   11.2134   23.7094 H       4  UNL4        0.0793
    101 N          18.6453    3.1569   12.4449 N.pl3   5  UNL5       -0.3135
    102 N          17.3557    4.2712   13.8083 N.pl3   5  UNL5       -0.3166
    103 C          18.3042    3.3176   13.7364 C.3     5  UNL5        0.1250
    104 C          17.0831    4.7250   12.5307 C.2     5  UNL5        0.0072
    105 C          16.6887    4.7153   15.0368 C.3     5  UNL5        0.0020
    106 H          18.7200    2.7723   14.5748 H       5  UNL5        0.0746
    107 H          16.3311    5.4826   12.3468 H       5  UNL5        0.0793
    108 H          16.1864    5.6653   14.8395 H       5  UNL5        0.0428
    109 H          15.9469    3.9663   15.3401 H       5  UNL5        0.0428
    110 H          17.4342    4.8492   15.8260 H       5  UNL5        0.0428
    111 C          17.8969    4.0315   11.6757 C.2     5  UNL5        0.0074
    112 C          21.7488    3.6875   12.2434 C.3     5  UNL5       -0.0545
    113 H          19.9862    1.6152   12.7987 H       5  UNL5        0.0464
    114 H          21.1782    4.4840   12.7427 H       5  UNL5        0.0263
    115 H          22.0904    3.0070   13.0379 H       5  UNL5        0.0263
    116 C          22.9663    4.2897   11.5262 C.3     5  UNL5       -0.0652
    117 H          22.6577    4.9880   10.7348 H       5  UNL5        0.0230
    118 H          23.5779    3.4970   11.0706 H       5  UNL5        0.0230
    119 H          23.6140    4.8441   12.2190 H       5  UNL5        0.0230
    120 C          19.6617    2.2094   11.9363 C.3     5  UNL5        0.0135
    121 C          20.8449    2.9146   11.2753 C.3     5  UNL5       -0.0374
    122 H          19.1573    1.5257   11.2399 H       5  UNL5        0.0464
    123 H          21.4303    2.1296   10.7723 H       5  UNL5        0.0280
    124 H          20.4785    3.5737   10.4748 H       5  UNL5        0.0280
    125 H          17.9967    4.0758   10.5992 H       5  UNL5        0.0793
    126 N          14.3328   -4.0823   25.5552 N.pl3   6  UNL6       -0.3135
    127 N          13.0432   -2.9680   26.9185 N.pl3   6  UNL6       -0.3166
    128 C          13.9916   -3.9216   26.8467 C.3     6  UNL6        0.1250
    129 C          12.7706   -2.5142   25.6409 C.2     6  UNL6        0.0072
    130 C          12.3762   -2.5239   28.1471 C.3     6  UNL6        0.0020
    131 H          14.4075   -4.4669   27.6851 H       6  UNL6        0.0746
    132 H          12.0186   -1.7566   25.4570 H       6  UNL6        0.0793
    133 H          11.8739   -1.5739   27.9498 H       6  UNL6        0.0428
    134 H          11.6343   -3.2729   28.4503 H       6  UNL6        0.0428
    135 H          13.1217   -2.3900   28.9362 H       6  UNL6        0.0428
    136 C          13.5843   -3.2077   24.7859 C.2     6  UNL6        0.0074
    137 C          17.4363   -3.5517   25.3536 C.3     6  UNL6       -0.0545
    138 H          15.6736   -5.6240   25.9090 H       6  UNL6        0.0464
    139 H          16.8657   -2.7552   25.8530 H       6  UNL6        0.0263
    140 H          17.7779   -4.2322   26.1481 H       6  UNL6        0.0263
    141 C          18.6538   -2.9495   24.6365 C.3     6  UNL6       -0.0652
    142 H          18.3452   -2.2512   23.8451 H       6  UNL6        0.0230
    143 H          19.2654   -3.7422   24.1809 H       6  UNL6        0.0230
    144 H          19.3015   -2.3951   25.3293 H       6  UNL6        0.0230
    145 C          15.3491   -5.0298   25.0466 C.3     6  UNL6        0.0135
    146 C          16.5324   -4.3246   24.3855 C.3     6  UNL6       -0.0374
    147 H          14.8447   -5.7135   24.3502 H       6  UNL6        0.0464
    148 H          17.1178   -5.1096   23.8826 H       6  UNL6        0.0280
    149 H          16.1660   -3.6655   23.5851 H       6  UNL6        0.0280
    150 H          13.6841   -3.1634   23.7094 H       6  UNL6        0.0793
    151 N          11.6234   17.5337   12.4449 N.pl3   7  UNL7       -0.3135
    152 N          10.3338   18.6480   13.8083 N.pl3   7  UNL7       -0.3166
    153 C          11.2822   17.6944   13.7364 C.3     7  UNL7        0.1250
    154 C          10.0612   19.1018   12.5307 C.2     7  UNL7        0.0072
    155 C           9.6668   19.0921   15.0368 C.3     7  UNL7        0.0020
    156 H          11.6981   17.1491   14.5748 H       7  UNL7        0.0746
    157 H           9.3092   19.8594   12.3468 H       7  UNL7        0.0793
    158 H           9.1645   20.0421   14.8395 H       7  UNL7        0.0428
    159 H           8.9249   18.3431   15.3401 H       7  UNL7        0.0428
    160 H          10.4123   19.2260   15.8260 H       7  UNL7        0.0428
    161 C          10.8749   18.4083   11.6757 C.2     7  UNL7        0.0074
    162 C          14.7269   18.0643   12.2434 C.3     7  UNL7       -0.0545
    163 H          12.9642   15.9921   12.7987 H       7  UNL7        0.0464
    164 H          14.1563   18.8608   12.7427 H       7  UNL7        0.0263
    165 H          15.0685   17.3838   13.0379 H       7  UNL7        0.0263
    166 C          15.9444   18.6665   11.5262 C.3     7  UNL7       -0.0652
    167 H          15.6358   19.3649   10.7348 H       7  UNL7        0.0230
    168 H          16.5560   17.8738   11.0706 H       7  UNL7        0.0230
    169 H          16.5921   19.2209   12.2190 H       7  UNL7        0.0230
    170 C          12.6397   16.5862   11.9363 C.3     7  UNL7        0.0135
    171 C          13.8230   17.2914   11.2753 C.3     7  UNL7       -0.0374
    172 H          12.1353   15.9025   11.2399 H       7  UNL7        0.0464
    173 H          14.4084   16.5064   10.7723 H       7  UNL7        0.0280
    174 H          13.4566   17.9506   10.4748 H       7  UNL7        0.0280
    175 H          10.9747   18.4526   10.5992 H       7  UNL7        0.0793
    176 N           7.3108   10.2945   25.5552 N.pl3   8  UNL8       -0.3135
    177 N           6.0212   11.4088   26.9185 N.pl3   8  UNL8       -0.3166
    178 C           6.9697   10.4552   26.8467 C.3     8  UNL8        0.1250
    179 C           5.7487   11.8626   25.6409 C.2     8  UNL8        0.0072
    180 C           5.3543   11.8529   28.1471 C.3     8  UNL8        0.0020
    181 H           7.3855    9.9099   27.6851 H       8  UNL8        0.0746
    182 H           4.9966   12.6202   25.4570 H       8  UNL8        0.0793
    183 H           4.8519   12.8029   27.9498 H       8  UNL8        0.0428
    184 H           4.6124   11.1039   28.4503 H       8  UNL8        0.0428
    185 H           6.0997   11.9868   28.9362 H       8  UNL8        0.0428
    186 C           6.5624   11.1691   24.7859 C.2     8  UNL8        0.0074
    187 C          10.4144   10.8251   25.3536 C.3     8  UNL8       -0.0545
    188 H           8.6517    8.7529   25.9090 H       8  UNL8        0.0464
    189 H           9.8437   11.6216   25.8530 H       8  UNL8        0.0263
    190 H          10.7560   10.1446   26.1481 H       8  UNL8        0.0263
    191 C          11.6318   11.4273   24.6365 C.3     8  UNL8       -0.0652
    192 H          11.3233   12.1256   23.8451 H       8  UNL8        0.0230
    193 H          12.2434   10.6346   24.1809 H       8  UNL8        0.0230
    194 H          12.2795   11.9817   25.3293 H       8  UNL8        0.0230
    195 C           8.3272    9.3470   25.0466 C.3     8  UNL8        0.0135
    196 C           9.5105   10.0522   24.3855 C.3     8  UNL8       -0.0374
    197 H           7.8228    8.6633   24.3502 H       8  UNL8        0.0464
    198 H          10.0958    9.2672   23.8826 H       8  UNL8        0.0280
    199 H           9.1441   10.7114   23.5851 H       8  UNL8        0.0280
    200 H           6.6622   11.2134   23.7094 H       8  UNL8        0.0793
@<TRIPOS>BOND
     1   124   121    1
     2    74    71    1
     3   174   171    1
     4    24    21    1
     5    75    61    1
     6   175   161    1
     7   125   111    1
     8    25    11    1
     9    67    66    1
    10    17    16    1
    11   167   166    1
    12   117   116    1
    13   123   121    1
    14    23    21    1
    15    73    71    1
    16   173   171    1
    17   168   166    1
    18    68    66    1
    19   118   116    1
    20    18    16    1
    21    22    20    1
    22    72    70    1
    23   122   120    1
    24   172   170    1
    25    21    20    1
    26    21    12    1
    27    71    70    1
    28    71    62    1
    29   121   120    1
    30   121   112    1
    31   171   170    1
    32   171   162    1
    33   116   119    1
    34   116   112    1
    35    66    69    1
    36    66    62    1
    37   166   169    1
    38   166   162    1
    39    16    19    1
    40    16    12    1
    41    11     1    1
    42    11     4    2
    43   161   151    1
    44   161   154    2
    45    61    51    1
    46    61    54    2
    47   111   101    1
    48   111   104    2
    49   120   101    1
    50   120   113    1
    51   170   151    1
    52   170   163    1
    53    70    51    1
    54    70    63    1
    55    20     1    1
    56    20    13    1
    57    62    64    1
    58    62    65    1
    59   162   164    1
    60   162   165    1
    61    12    14    1
    62    12    15    1
    63   112   114    1
    64   112   115    1
    65   107   104    1
    66    57    54    1
    67   157   154    1
    68     7     4    1
    69   101   103    1
    70   151   153    1
    71     1     3    1
    72    51    53    1
    73   154   152    1
    74   104   102    1
    75     4     2    1
    76    54    52    1
    77   153   152    1
    78   153   156    1
    79    53    52    1
    80    53    56    1
    81     3     2    1
    82     3     6    1
    83   103   102    1
    84   103   106    1
    85   152   155    1
    86   102   105    1
    87     2     5    1
    88    52    55    1
    89    58    55    1
    90   108   105    1
    91   158   155    1
    92     8     5    1
    93     5     9    1
    94     5    10    1
    95    55    59    1
    96    55    60    1
    97   105   109    1
    98   105   110    1
    99   155   159    1
   100   155   160    1
   101   199   196    1
   102    99    96    1
   103   149   146    1
   104    49    46    1
   105    50    36    1
   106   200   186    1
   107   100    86    1
   108   150   136    1
   109   142   141    1
   110   192   191    1
   111    92    91    1
   112    42    41    1
   113    98    96    1
   114   198   196    1
   115    48    46    1
   116   148   146    1
   117    93    91    1
   118   193   191    1
   119   143   141    1
   120    43    41    1
   121    47    45    1
   122   147   145    1
   123   197   195    1
   124    97    95    1
   125    46    45    1
   126    46    37    1
   127   146   145    1
   128   146   137    1
   129   196   195    1
   130   196   187    1
   131    96    95    1
   132    96    87    1
   133    41    44    1
   134    41    37    1
   135   141   144    1
   136   141   137    1
   137    91    94    1
   138    91    87    1
   139   191   194    1
   140   191   187    1
   141    86    76    1
   142    86    79    2
   143   136   126    1
   144   136   129    2
   145    36    26    1
   146    36    29    2
   147   186   176    1
   148   186   179    2
   149   195   176    1
   150   195   188    1
   151    45    26    1
   152    45    38    1
   153    95    76    1
   154    95    88    1
   155   145   126    1
   156   145   138    1
   157    37    39    1
   158    37    40    1
   159   137   139    1
   160   137   140    1
   161   187   189    1
   162   187   190    1
   163    87    89    1
   164    87    90    1
   165    32    29    1
   166    82    79    1
   167   132   129    1
   168   182   179    1
   169    26    28    1
   170    76    78    1
   171   176   178    1
   172   126   128    1
   173   179   177    1
   174    29    27    1
   175   129   127    1
   176    79    77    1
   177    28    27    1
   178    28    31    1
   179    78    77    1
   180    78    81    1
   181   178   177    1
   182   178   181    1
   183   128   127    1
   184   128   131    1
   185    27    30    1
   186    77    80    1
   187   177   180    1
   188   127   130    1
   189    83    80    1
   190    33    30    1
   191   183   180    1
   192   133   130    1
   193   180   184    1
   194   180   185    1
   195    30    34    1
   196    30    35    1
   197   130   134    1
   198   130   135    1
   199    80    84    1
   200    80    85    1
