@<TRIPOS>MOLECULE
Lattice="32.018782 0.0 0.0 -14.043870532898428 28.753623292648026 0.0 -8.625062807759862 -14.478403582935226 26.22054754850901" Properties=species:S:1:pos:R:3 i=151 E=-1376.2763549353 pbc="T T T"
 200 200 0 0 0
SMALL
GASTEIGER

@<TRIPOS>ATOM
      1 N           4.3229    2.6500   14.0582 N.pl3   1  UNL1       -0.3135
      2 N           2.4384    2.0346   13.1464 N.pl3   1  UNL1       -0.3166
      3 C           3.0396    2.3426   14.3103 C.3     1  UNL1        0.1250
      4 C           3.3680    2.1376   12.1229 C.2     1  UNL1        0.0072
      5 C           1.0444    1.6016   13.0059 C.3     1  UNL1        0.0020
      6 H           2.5777    2.3348   15.2878 H       1  UNL1        0.0746
      7 H           3.1213    1.8865   11.0999 H       1  UNL1        0.0793
      8 H           0.6028    2.0690   12.1176 H       1  UNL1        0.0428
      9 H           1.0227    0.5069   12.9226 H       1  UNL1        0.0428
     10 H           0.4684    1.9299   13.8791 H       1  UNL1        0.0428
     11 C           4.5474    2.5312   12.6951 C.2     1  UNL1        0.0074
     12 C           4.0339    5.1369   15.9355 C.3     1  UNL1       -0.0545
     13 H           5.0619    2.5217   15.9935 H       1  UNL1        0.0464
     14 H           3.2104    5.0511   15.2119 H       1  UNL1        0.0263
     15 H           3.7443    4.5196   16.7979 H       1  UNL1        0.0263
     16 C           4.1817    6.5990   16.3783 C.3     1  UNL1       -0.0652
     17 H           4.4445    7.2553   15.5378 H       1  UNL1        0.0230
     18 H           4.9701    6.7052   17.1362 H       1  UNL1        0.0230
     19 H           3.2485    6.9778   16.8178 H       1  UNL1        0.0230
     20 C           5.3120    3.0679   15.0750 C.3     1  UNL1        0.0135
     21 C           5.3277    4.5787   15.3257 C.3     1  UNL1       -0.0374
     22 H           6.2846    2.7004   14.7250 H       1  UNL1        0.0464
     23 H           6.1671    4.7633   16.0150 H       1  UNL1        0.0280
     24 H           5.5794    5.1092   14.3959 H       1  UNL1        0.0280
     25 H           5.5228    2.7007   12.2596 H       1  UNL1        0.0793
     26 N           0.0104   -4.5892   27.1685 N.pl3   2  UNL2       -0.3135
     27 N          -1.8742   -5.2046   26.2567 N.pl3   2  UNL2       -0.3166
     28 C          -1.2729   -4.8966   27.4205 C.3     2  UNL2        0.1250
     29 C          -0.9446   -5.1016   25.2331 C.2     2  UNL2        0.0072
     30 C          -3.2681   -5.6376   26.1162 C.3     2  UNL2        0.0020
     31 H          -1.7348   -4.9044   28.3981 H       2  UNL2        0.0746
     32 H          -1.1912   -5.3527   24.2101 H       2  UNL2        0.0793
     33 H          -3.7098   -5.1702   25.2279 H       2  UNL2        0.0428
     34 H          -3.2899   -6.7323   26.0328 H       2  UNL2        0.0428
     35 H          -3.8442   -5.3094   26.9894 H       2  UNL2        0.0428
     36 C           0.2348   -4.7080   25.8054 C.2     2  UNL2        0.0074
     37 C          -0.2787   -2.1023   29.0458 C.3     2  UNL2       -0.0545
     38 H           0.7494   -4.7175   29.1038 H       2  UNL2        0.0464
     39 H          -1.1021   -2.1881   28.3222 H       2  UNL2        0.0263
     40 H          -0.5683   -2.7196   29.9081 H       2  UNL2        0.0263
     41 C          -0.1309   -0.6402   29.4886 C.3     2  UNL2       -0.0652
     42 H           0.1319    0.0161   28.6481 H       2  UNL2        0.0230
     43 H           0.6576   -0.5340   30.2465 H       2  UNL2        0.0230
     44 H          -1.0641   -0.2614   29.9281 H       2  UNL2        0.0230
     45 C           0.9994   -4.1713   28.1853 C.3     2  UNL2        0.0135
     46 C           1.0152   -2.6605   28.4359 C.3     2  UNL2       -0.0374
     47 H           1.9720   -4.5388   27.8353 H       2  UNL2        0.0464
     48 H           1.8545   -2.4759   29.1253 H       2  UNL2        0.0280
     49 H           1.2669   -2.1300   27.5061 H       2  UNL2        0.0280
     50 H           1.2103   -4.5385   25.3698 H       2  UNL2        0.0793
     51 N          -2.6990   17.0268   14.0582 N.pl3   3  UNL3       -0.3135
     52 N          -4.5836   16.4115   13.1464 N.pl3   3  UNL3       -0.3166
     53 C          -3.9823   16.7194   14.3103 C.3     3  UNL3        0.1250
     54 C          -3.6540   16.5144   12.1229 C.2     3  UNL3        0.0072
     55 C          -5.9775   15.9784   13.0059 C.3     3  UNL3        0.0020
     56 H          -4.4442   16.7116   15.2878 H       3  UNL3        0.0746
     57 H          -3.9006   16.2633   11.0999 H       3  UNL3        0.0793
     58 H          -6.4192   16.4459   12.1176 H       3  UNL3        0.0428
     59 H          -5.9993   14.8837   12.9226 H       3  UNL3        0.0428
     60 H          -6.5536   16.3067   13.8791 H       3  UNL3        0.0428
     61 C          -2.4746   16.9080   12.6951 C.2     3  UNL3        0.0074
     62 C          -2.9881   19.5137   15.9355 C.3     3  UNL3       -0.0545
     63 H          -1.9600   16.8985   15.9935 H       3  UNL3        0.0464
     64 H          -3.8116   19.4279   15.2119 H       3  UNL3        0.0263
     65 H          -3.2777   18.8964   16.7979 H       3  UNL3        0.0263
     66 C          -2.8403   20.9759   16.3783 C.3     3  UNL3       -0.0652
     67 H          -2.5775   21.6321   15.5378 H       3  UNL3        0.0230
     68 H          -2.0518   21.0820   17.1362 H       3  UNL3        0.0230
     69 H          -3.7735   21.3546   16.8178 H       3  UNL3        0.0230
     70 C          -1.7100   17.4447   15.0750 C.3     3  UNL3        0.0135
     71 C          -1.6942   18.9555   15.3257 C.3     3  UNL3       -0.0374
     72 H          -0.7374   17.0772   14.7250 H       3  UNL3        0.0464
     73 H          -0.8549   19.1401   16.0150 H       3  UNL3        0.0280
     74 H          -1.4425   19.4860   14.3959 H       3  UNL3        0.0280
     75 H          -1.4991   17.0775   12.2596 H       3  UNL3        0.0793
     76 N          -7.0116    9.7876   27.1685 N.pl3   4  UNL4       -0.3135
     77 N          -8.8961    9.1723   26.2567 N.pl3   4  UNL4       -0.3166
     78 C          -8.2948    9.4802   27.4205 C.3     4  UNL4        0.1250
     79 C          -7.9665    9.2752   25.2331 C.2     4  UNL4        0.0072
     80 C         -10.2901    8.7392   26.1162 C.3     4  UNL4        0.0020
     81 H          -8.7568    9.4724   28.3981 H       4  UNL4        0.0746
     82 H          -8.2132    9.0241   24.2101 H       4  UNL4        0.0793
     83 H         -10.7317    9.2067   25.2279 H       4  UNL4        0.0428
     84 H         -10.3118    7.6445   26.0328 H       4  UNL4        0.0428
     85 H         -10.8661    9.0675   26.9894 H       4  UNL4        0.0428
     86 C          -6.7871    9.6688   25.8054 C.2     4  UNL4        0.0074
     87 C          -7.3006   12.2745   29.0458 C.3     4  UNL4       -0.0545
     88 H          -6.2725    9.6593   29.1038 H       4  UNL4        0.0464
     89 H          -8.1241   12.1887   28.3222 H       4  UNL4        0.0263
     90 H          -7.5902   11.6572   29.9081 H       4  UNL4        0.0263
     91 C          -7.1528   13.7367   29.4886 C.3     4  UNL4       -0.0652
     92 H          -6.8900   14.3929   28.6481 H       4  UNL4        0.0230
     93 H          -6.3643   13.8428   30.2465 H       4  UNL4        0.0230
     94 H          -8.0860   14.1154   29.9281 H       4  UNL4        0.0230
     95 C          -6.0225   10.2055   28.1853 C.3     4  UNL4        0.0135
     96 C          -6.0068   11.7163   28.4359 C.3     4  UNL4       -0.0374
     97 H          -5.0499    9.8380   27.8353 H       4  UNL4        0.0464
     98 H          -5.1674   11.9009   29.1253 H       4  UNL4        0.0280
     99 H          -5.7550   12.2468   27.5061 H       4  UNL4        0.0280
    100 H          -5.8116    9.8383   25.3698 H       4  UNL4        0.0793
    101 N          20.3323    2.6500   14.0582 N.pl3   5  UNL5       -0.3135
    102 N          18.4478    2.0346   13.1464 N.pl3   5  UNL5       -0.3166
    103 C          19.0490    2.3426   14.3103 C.3     5  UNL5        0.1250
    104 C          19.3774    2.1376   12.1229 C.2     5  UNL5        0.0072
    105 C          17.0538    1.6016   13.0059 C.3     5  UNL5        0.0020
    106 H          18.5871    2.3348   15.2878 H       5  UNL5        0.0746
    107 H          19.1307    1.8865   11.0999 H       5  UNL5        0.0793
    108 H          16.6122    2.0690   12.1176 H       5  UNL5        0.0428
    109 H          17.0321    0.5069   12.9226 H       5  UNL5        0.0428
    110 H          16.4778    1.9299   13.8791 H       5  UNL5        0.0428
    111 C          20.5568    2.5312   12.6951 C.2     5  UNL5        0.0074
    112 C          20.0433    5.1369   15.9355 C.3     5  UNL5       -0.0545
    113 H          21.0713    2.5217   15.9935 H       5  UNL5        0.0464
    114 H          19.2198    5.0511   15.2119 H       5  UNL5        0.0263
    115 H          19.7537    4.5196   16.7979 H       5  UNL5        0.0263
    116 C          20.1910    6.5990   16.3783 C.3     5  UNL5       -0.0652
    117 H          20.4539    7.2553   15.5378 H       5  UNL5        0.0230
    118 H          20.9795    6.7052   17.1362 H       5  UNL5        0.0230
    119 H          19.2579    6.9778   16.8178 H       5  UNL5        0.0230
    120 C          21.3214    3.0679   15.0750 C.3     5  UNL5        0.0135
    121 C          21.3371    4.5787   15.3257 C.3     5  UNL5       -0.0374
    122 H          22.2940    2.7004   14.7250 H       5  UNL5        0.0464
    123 H          22.1764    4.7633   16.0150 H       5  UNL5        0.0280
    124 H          21.5888    5.1092   14.3959 H       5  UNL5        0.0280
    125 H          21.5322    2.7007   12.2596 H       5  UNL5        0.0793
    126 N          16.0198   -4.5892   27.1685 N.pl3   6  UNL6       -0.3135
    127 N          14.1352   -5.2046   26.2567 N.pl3   6  UNL6       -0.3166
    128 C          14.7365   -4.8966   27.4205 C.3     6  UNL6        0.1250
    129 C          15.0648   -5.1016   25.2331 C.2     6  UNL6        0.0072
    130 C          12.7413   -5.6376   26.1162 C.3     6  UNL6        0.0020
    131 H          14.2746   -4.9044   28.3981 H       6  UNL6        0.0746
    132 H          14.8182   -5.3527   24.2101 H       6  UNL6        0.0793
    133 H          12.2996   -5.1702   25.2279 H       6  UNL6        0.0428
    134 H          12.7195   -6.7323   26.0328 H       6  UNL6        0.0428
    135 H          12.1652   -5.3094   26.9894 H       6  UNL6        0.0428
    136 C          16.2442   -4.7080   25.8054 C.2     6  UNL6        0.0074
    137 C          15.7307   -2.1023   29.0458 C.3     6  UNL6       -0.0545
    138 H          16.7588   -4.7175   29.1038 H       6  UNL6        0.0464
    139 H          14.9072   -2.1881   28.3222 H       6  UNL6        0.0263
    140 H          15.4411   -2.7196   29.9081 H       6  UNL6        0.0263
    141 C          15.8785   -0.6402   29.4886 C.3     6  UNL6       -0.0652
    142 H          16.1413    0.0161   28.6481 H       6  UNL6        0.0230
    143 H          16.6670   -0.5340   30.2465 H       6  UNL6        0.0230
    144 H          14.9453   -0.2614   29.9281 H       6  UNL6        0.0230
    145 C          17.0088   -4.1713   28.1853 C.3     6  UNL6        0.0135
    146 C          17.0246   -2.6605   28.4359 C.3     6  UNL6       -0.0374
    147 H          17.9814   -4.5388   27.8353 H       6  UNL6        0.0464
    148 H          17.8639   -2.4759   29.1253 H       6  UNL6        0.0280
    149 H          17.2763   -2.1300   27.5061 H       6  UNL6        0.0280
    150 H          17.2197   -4.5385   25.3698 H       6  UNL6        0.0793
    151 N          13.3103   17.0268   14.0582 N.pl3   7  UNL7       -0.3135
    152 N          11.4258   16.4115   13.1464 N.pl3   7  UNL7       -0.3166
    153 C          12.0271   16.7194   14.3103 C.3     7  UNL7        0.1250
    154 C          12.3554   16.5144   12.1229 C.2     7  UNL7        0.0072
    155 C          10.0319   15.9784   13.0059 C.3     7  UNL7        0.0020
    156 H          11.5652   16.7116   15.2878 H       7  UNL7        0.0746
    157 H          12.1088   16.2633   11.0999 H       7  UNL7        0.0793
    158 H           9.5902   16.4459   12.1176 H       7  UNL7        0.0428
    159 H          10.0101   14.8837   12.9226 H       7  UNL7        0.0428
    160 H           9.4558   16.3067   13.8791 H       7  UNL7        0.0428
    161 C          13.5348   16.9080   12.6951 C.2     7  UNL7        0.0074
    162 C          13.0213   19.5137   15.9355 C.3     7  UNL7       -0.0545
    163 H          14.0494   16.8985   15.9935 H       7  UNL7        0.0464
    164 H          12.1978   19.4279   15.2119 H       7  UNL7        0.0263
    165 H          12.7317   18.8964   16.7979 H       7  UNL7        0.0263
    166 C          13.1691   20.9759   16.3783 C.3     7  UNL7       -0.0652
    167 H          13.4319   21.6321   15.5378 H       7  UNL7        0.0230
    168 H          13.9576   21.0820   17.1362 H       7  UNL7        0.0230
    169 H          12.2359   21.3546   16.8178 H       7  UNL7        0.0230
    170 C          14.2994   17.4447   15.0750 C.3     7  UNL7        0.0135
    171 C          14.3152   18.9555   15.3257 C.3     7  UNL7       -0.0374
    172 H          15.2720   17.0772   14.7250 H       7  UNL7        0.0464
    173 H          15.1545   19.1401   16.0150 H       7  UNL7        0.0280
    174 H          14.5669   19.4860   14.3959 H       7  UNL7        0.0280
    175 H          14.5103   17.0775   12.2596 H       7  UNL7        0.0793
    176 N           8.9978    9.7876   27.1685 N.pl3   8  UNL8       -0.3135
    177 N           7.1133    9.1723   26.2567 N.pl3   8  UNL8       -0.3166
    178 C           7.7146    9.4802   27.4205 C.3     8  UNL8        0.1250
    179 C           8.0429    9.2752   25.2331 C.2     8  UNL8        0.0072
    180 C           5.7193    8.7392   26.1162 C.3     8  UNL8        0.0020
    181 H           7.2526    9.4724   28.3981 H       8  UNL8        0.0746
    182 H           7.7962    9.0241   24.2101 H       8  UNL8        0.0793
    183 H           5.2777    9.2067   25.2279 H       8  UNL8        0.0428
    184 H           5.6976    7.6445   26.0328 H       8  UNL8        0.0428
    185 H           5.1433    9.0675   26.9894 H       8  UNL8        0.0428
    186 C           9.2223    9.6688   25.8054 C.2     8  UNL8        0.0074
    187 C           8.7088   12.2745   29.0458 C.3     8  UNL8       -0.0545
    188 H           9.7369    9.6593   29.1038 H       8  UNL8        0.0464
    189 H           7.8853   12.1887   28.3222 H       8  UNL8        0.0263
    190 H           8.4192   11.6572   29.9081 H       8  UNL8        0.0263
    191 C           8.8566   13.7367   29.4886 C.3     8  UNL8       -0.0652
    192 H           9.1194   14.3929   28.6481 H       8  UNL8        0.0230
    193 H           9.6451   13.8428   30.2465 H       8  UNL8        0.0230
    194 H           7.9234   14.1154   29.9281 H       8  UNL8        0.0230
    195 C           9.9869   10.2055   28.1853 C.3     8  UNL8        0.0135
    196 C          10.0026   11.7163   28.4359 C.3     8  UNL8       -0.0374
    197 H          10.9595    9.8380   27.8353 H       8  UNL8        0.0464
    198 H          10.8420   11.9009   29.1253 H       8  UNL8        0.0280
    199 H          10.2544   12.2468   27.5061 H       8  UNL8        0.0280
    200 H          10.1978    9.8383   25.3698 H       8  UNL8        0.0793
@<TRIPOS>BOND
     1   107   104    1
     2    57    54    1
     3   157   154    1
     4     7     4    1
     5   158   155    1
     6   108   105    1
     7    58    55    1
     8     8     5    1
     9    54    61    2
    10    54    52    1
    11   104   111    2
    12   104   102    1
    13     4    11    2
    14     4     2    1
    15   154   161    2
    16   154   152    1
    17    75    61    1
    18    25    11    1
    19   175   161    1
    20   125   111    1
    21    61    51    1
    22   161   151    1
    23   111   101    1
    24    11     1    1
    25    59    55    1
    26   109   105    1
    27   159   155    1
    28     9     5    1
    29   105   102    1
    30   105   110    1
    31   155   152    1
    32   155   160    1
    33    55    52    1
    34    55    60    1
    35     5     2    1
    36     5    10    1
    37     2     3    1
    38    52    53    1
    39   102   103    1
    40   152   153    1
    41     1     3    1
    42     1    20    1
    43   151   153    1
    44   151   170    1
    45   101   103    1
    46   101   120    1
    47    51    53    1
    48    51    70    1
    49   103   106    1
    50    53    56    1
    51     3     6    1
    52   153   156    1
    53    74    71    1
    54   124   121    1
    55    24    21    1
    56   174   171    1
    57   172   170    1
    58    22    20    1
    59    72    70    1
    60   122   120    1
    61    20    21    1
    62    20    13    1
    63   170   171    1
    64   170   163    1
    65    70    71    1
    66    70    63    1
    67   120   121    1
    68   120   113    1
    69    64    62    1
    70    14    12    1
    71   164   162    1
    72   114   112    1
    73   121   112    1
    74   121   123    1
    75   171   162    1
    76   171   173    1
    77    21    12    1
    78    21    23    1
    79    71    62    1
    80    71    73    1
    81   117   116    1
    82    17    16    1
    83    67    66    1
    84   167   166    1
    85   112   116    1
    86   112   115    1
    87   162   166    1
    88   162   165    1
    89    62    66    1
    90    62    65    1
    91    12    16    1
    92    12    15    1
    93   116   119    1
    94   116   118    1
    95    16    19    1
    96    16    18    1
    97   166   169    1
    98   166   168    1
    99    66    69    1
   100    66    68    1
   101   132   129    1
   102    32    29    1
   103    82    79    1
   104   182   179    1
   105   183   180    1
   106    33    30    1
   107   133   130    1
   108    83    80    1
   109    29    36    2
   110    29    27    1
   111   129   136    2
   112   129   127    1
   113   179   186    2
   114   179   177    1
   115    79    86    2
   116    79    77    1
   117   150   136    1
   118   200   186    1
   119   100    86    1
   120    50    36    1
   121   186   176    1
   122   136   126    1
   123    86    76    1
   124    36    26    1
   125    34    30    1
   126    84    80    1
   127   184   180    1
   128   134   130    1
   129   180   177    1
   130   180   185    1
   131    30    27    1
   132    30    35    1
   133    80    77    1
   134    80    85    1
   135   130   127    1
   136   130   135    1
   137   177   178    1
   138    77    78    1
   139    27    28    1
   140   127   128    1
   141    26    28    1
   142    26    45    1
   143   176   178    1
   144   176   195    1
   145    76    78    1
   146    76    95    1
   147   126   128    1
   148   126   145    1
   149    78    81    1
   150    28    31    1
   151   178   181    1
   152   128   131    1
   153    49    46    1
   154   149   146    1
   155    99    96    1
   156   199   196    1
   157   197   195    1
   158    97    95    1
   159    47    45    1
   160   147   145    1
   161   195   196    1
   162   195   188    1
   163    45    46    1
   164    45    38    1
   165    95    96    1
   166    95    88    1
   167   145   146    1
   168   145   138    1
   169   189   187    1
   170    39    37    1
   171    89    87    1
   172   139   137    1
   173    46    37    1
   174    46    48    1
   175   146   137    1
   176   146   148    1
   177    96    87    1
   178    96    98    1
   179   196   187    1
   180   196   198    1
   181    92    91    1
   182    42    41    1
   183   142   141    1
   184   192   191    1
   185    37    41    1
   186    37    40    1
   187   137   141    1
   188   137   140    1
   189   187   191    1
   190   187   190    1
   191    87    91    1
   192    87    90    1
   193   191   194    1
   194   191   193    1
   195    41    44    1
   196    41    43    1
   197   141   144    1
   198   141   143    1
   199    91    94    1
   200    91    93    1
