@<TRIPOS>MOLECULE
Lattice="32.018782 0.0 0.0 -14.043870532898428 28.753623292648026 0.0 -8.625062807759862 -14.478403582935226 26.22054754850901" Properties=species:S:1:pos:R:3 i=600 E=-1376.275626682 pbc="T T T"
 200 200 0 0 0
SMALL
GASTEIGER

@<TRIPOS>ATOM
      1 H          10.8869    9.4429   14.2555 H       1  UNL1        0.0464
      2 H          10.8893    8.7445   12.6202 H       1  UNL1        0.0464
      3 H          10.9269    7.1047   14.5740 H       1  UNL1        0.0280
      4 C          10.3078    8.8396   13.5451 C.3     1  UNL1        0.0135
      5 C           9.9792    7.4724   14.1510 C.3     1  UNL1       -0.0374
      6 N           9.1167    9.6564   13.2111 N.pl3   1  UNL1       -0.3135
      7 H          10.1113    6.3804   12.2963 H       1  UNL1        0.0263
      8 H          10.2890    4.6728   14.1568 H       1  UNL1        0.0230
      9 H           9.2950    7.5983   15.0029 H       1  UNL1        0.0280
     10 H           8.9702    9.3800   11.0744 H       1  UNL1        0.0746
     11 C           8.5835    9.8119   11.9873 C.3     1  UNL1        0.1250
     12 C           9.4364    6.4306   13.1641 C.3     1  UNL1       -0.0545
     13 H           8.6683   10.4771   15.1530 H       1  UNL1        0.0793
     14 C           9.3133    5.0389   13.8053 C.3     1  UNL1       -0.0652
     15 C           8.3923   10.4261   14.1085 C.2     1  UNL1        0.0074
     16 N           7.5396   10.6584   12.0767 N.pl3   1  UNL1       -0.3166
     17 H           8.4576    6.7501   12.7772 H       1  UNL1        0.0263
     18 H           8.6367    5.0526   14.6709 H       1  UNL1        0.0230
     19 C           7.4037   11.0562   13.4002 C.2     1  UNL1        0.0072
     20 H           8.9214    4.2963   13.0963 H       1  UNL1        0.0230
     21 H           7.1781   10.8232   10.0206 H       1  UNL1        0.0428
     22 C           6.6667   11.0485   10.9623 C.3     1  UNL1        0.0020
     23 H           6.4641   12.1257   11.0147 H       1  UNL1        0.0428
     24 H           6.6354   11.7484   13.7252 H       1  UNL1        0.0793
     25 H           5.7269   10.4870   11.0148 H       1  UNL1        0.0428
     26 H           6.5744    2.2037   27.3657 H       2  UNL2        0.0464
     27 H           6.5767    1.5053   25.7305 H       2  UNL2        0.0464
     28 H           6.6144   -0.1345   27.6843 H       2  UNL2        0.0280
     29 C           5.9953    1.6004   26.6554 C.3     2  UNL2        0.0135
     30 C           5.6667    0.2332   27.2613 C.3     2  UNL2       -0.0374
     31 N           4.8042    2.4172   26.3214 N.pl3   2  UNL2       -0.3135
     32 H           5.7988   -0.8588   25.4066 H       2  UNL2        0.0263
     33 H           5.9764   -2.5664   27.2671 H       2  UNL2        0.0230
     34 H           4.9825    0.3591   28.1131 H       2  UNL2        0.0280
     35 H           4.6577    2.1408   24.1846 H       2  UNL2        0.0746
     36 C           4.2710    2.5727   25.0976 C.3     2  UNL2        0.1250
     37 C           5.1239   -0.8086   26.2744 C.3     2  UNL2       -0.0545
     38 H           4.3557    3.2379   28.2632 H       2  UNL2        0.0793
     39 C           5.0007   -2.2003   26.9156 C.3     2  UNL2       -0.0652
     40 C           4.0798    3.1869   27.2188 C.2     2  UNL2        0.0074
     41 N           3.2270    3.4192   25.1870 N.pl3   2  UNL2       -0.3166
     42 H           4.1451   -0.4891   25.8875 H       2  UNL2        0.0263
     43 H           4.3241   -2.1866   27.7812 H       2  UNL2        0.0230
     44 C           3.0912    3.8170   26.5105 C.2     2  UNL2        0.0072
     45 H           4.6088   -2.9429   26.2066 H       2  UNL2        0.0230
     46 H           2.8655    3.5840   23.1309 H       2  UNL2        0.0428
     47 C           2.3542    3.8093   24.0726 C.3     2  UNL2        0.0020
     48 H           2.1516    4.8865   24.1250 H       2  UNL2        0.0428
     49 H           2.3229    4.5092   26.8354 H       2  UNL2        0.0793
     50 H           1.4143    3.2478   24.1250 H       2  UNL2        0.0428
     51 H           3.8650   23.8197   14.2555 H       3  UNL3        0.0464
     52 H           3.8673   23.1213   12.6202 H       3  UNL3        0.0464
     53 H           3.9050   21.4815   14.5740 H       3  UNL3        0.0280
     54 C           3.2859   23.2165   13.5451 C.3     3  UNL3        0.0135
     55 C           2.9573   21.8492   14.1510 C.3     3  UNL3       -0.0374
     56 N           2.0948   24.0332   13.2111 N.pl3   3  UNL3       -0.3135
     57 H           3.0894   20.7572   12.2963 H       3  UNL3        0.0263
     58 H           3.2670   19.0496   14.1568 H       3  UNL3        0.0230
     59 H           2.2731   21.9751   15.0029 H       3  UNL3        0.0280
     60 H           1.9483   23.7568   11.0744 H       3  UNL3        0.0746
     61 C           1.5616   24.1888   11.9873 C.3     3  UNL3        0.1250
     62 C           2.4145   20.8074   13.1641 C.3     3  UNL3       -0.0545
     63 H           1.6463   24.8539   15.1530 H       3  UNL3        0.0793
     64 C           2.2913   19.4158   13.8053 C.3     3  UNL3       -0.0652
     65 C           1.3704   24.8030   14.1085 C.2     3  UNL3        0.0074
     66 N           0.5176   25.0352   12.0767 N.pl3   3  UNL3       -0.3166
     67 H           1.4357   21.1270   12.7772 H       3  UNL3        0.0263
     68 H           1.6147   19.4294   14.6709 H       3  UNL3        0.0230
     69 C           0.3818   25.4330   13.4002 C.2     3  UNL3        0.0072
     70 H           1.8994   18.6731   13.0963 H       3  UNL3        0.0230
     71 H           0.1561   25.2000   10.0206 H       3  UNL3        0.0428
     72 C          -0.3552   25.4253   10.9623 C.3     3  UNL3        0.0020
     73 H          -0.5578   26.5025   11.0147 H       3  UNL3        0.0428
     74 H          -0.3865   26.1252   13.7252 H       3  UNL3        0.0793
     75 H          -1.2951   24.8638   11.0148 H       3  UNL3        0.0428
     76 H          -0.4475   16.5805   27.3657 H       4  UNL4        0.0464
     77 H          -0.4452   15.8821   25.7305 H       4  UNL4        0.0464
     78 H          -0.4075   14.2423   27.6843 H       4  UNL4        0.0280
     79 C          -1.0267   15.9773   26.6554 C.3     4  UNL4        0.0135
     80 C          -1.3552   14.6100   27.2613 C.3     4  UNL4       -0.0374
     81 N          -2.2178   16.7940   26.3214 N.pl3   4  UNL4       -0.3135
     82 H          -1.2232   13.5180   25.4066 H       4  UNL4        0.0263
     83 H          -1.0455   11.8104   27.2671 H       4  UNL4        0.0230
     84 H          -2.0395   14.7359   28.1131 H       4  UNL4        0.0280
     85 H          -2.3643   16.5176   24.1846 H       4  UNL4        0.0746
     86 C          -2.7510   16.9496   25.0976 C.3     4  UNL4        0.1250
     87 C          -1.8980   13.5682   26.2744 C.3     4  UNL4       -0.0545
     88 H          -2.6662   17.6147   28.2632 H       4  UNL4        0.0793
     89 C          -2.0212   12.1766   26.9156 C.3     4  UNL4       -0.0652
     90 C          -2.9422   17.5638   27.2188 C.2     4  UNL4        0.0074
     91 N          -3.7949   17.7960   25.1870 N.pl3   4  UNL4       -0.3166
     92 H          -2.8769   13.8878   25.8875 H       4  UNL4        0.0263
     93 H          -2.6978   12.1902   27.7812 H       4  UNL4        0.0230
     94 C          -3.9308   18.1938   26.5105 C.2     4  UNL4        0.0072
     95 H          -2.4131   11.4339   26.2066 H       4  UNL4        0.0230
     96 H          -4.1564   17.9608   23.1309 H       4  UNL4        0.0428
     97 C          -4.6677   18.1861   24.0726 C.3     4  UNL4        0.0020
     98 H          -4.8704   19.2633   24.1250 H       4  UNL4        0.0428
     99 H          -4.6990   18.8860   26.8354 H       4  UNL4        0.0793
    100 H          -5.6076   17.6246   24.1250 H       4  UNL4        0.0428
    101 H          26.8963    9.4429   14.2555 H       5  UNL5        0.0464
    102 H          26.8987    8.7445   12.6202 H       5  UNL5        0.0464
    103 H          26.9363    7.1047   14.5740 H       5  UNL5        0.0280
    104 C          26.3172    8.8396   13.5451 C.3     5  UNL5        0.0135
    105 C          25.9886    7.4724   14.1510 C.3     5  UNL5       -0.0374
    106 N          25.1261    9.6564   13.2111 N.pl3   5  UNL5       -0.3135
    107 H          26.1207    6.3804   12.2963 H       5  UNL5        0.0263
    108 H          26.2983    4.6728   14.1568 H       5  UNL5        0.0230
    109 H          25.3044    7.5983   15.0029 H       5  UNL5        0.0280
    110 H          24.9796    9.3800   11.0744 H       5  UNL5        0.0746
    111 C          24.5929    9.8119   11.9873 C.3     5  UNL5        0.1250
    112 C          25.4458    6.4306   13.1641 C.3     5  UNL5       -0.0545
    113 H          24.6777   10.4771   15.1530 H       5  UNL5        0.0793
    114 C          25.3227    5.0389   13.8053 C.3     5  UNL5       -0.0652
    115 C          24.4017   10.4261   14.1085 C.2     5  UNL5        0.0074
    116 N          23.5490   10.6584   12.0767 N.pl3   5  UNL5       -0.3166
    117 H          24.4670    6.7501   12.7772 H       5  UNL5        0.0263
    118 H          24.6461    5.0526   14.6709 H       5  UNL5        0.0230
    119 C          23.4131   11.0562   13.4002 C.2     5  UNL5        0.0072
    120 H          24.9307    4.2963   13.0963 H       5  UNL5        0.0230
    121 H          23.1875   10.8232   10.0206 H       5  UNL5        0.0428
    122 C          22.6761   11.0485   10.9623 C.3     5  UNL5        0.0020
    123 H          22.4735   12.1257   11.0147 H       5  UNL5        0.0428
    124 H          22.6448   11.7484   13.7252 H       5  UNL5        0.0793
    125 H          21.7363   10.4870   11.0148 H       5  UNL5        0.0428
    126 H          22.5838    2.2037   27.3657 H       6  UNL6        0.0464
    127 H          22.5861    1.5053   25.7305 H       6  UNL6        0.0464
    128 H          22.6238   -0.1345   27.6843 H       6  UNL6        0.0280
    129 C          22.0046    1.6004   26.6554 C.3     6  UNL6        0.0135
    130 C          21.6761    0.2332   27.2613 C.3     6  UNL6       -0.0374
    131 N          20.8136    2.4172   26.3214 N.pl3   6  UNL6       -0.3135
    132 H          21.8082   -0.8588   25.4066 H       6  UNL6        0.0263
    133 H          21.9858   -2.5664   27.2671 H       6  UNL6        0.0230
    134 H          20.9919    0.3591   28.1131 H       6  UNL6        0.0280
    135 H          20.6671    2.1408   24.1846 H       6  UNL6        0.0746
    136 C          20.2804    2.5727   25.0976 C.3     6  UNL6        0.1250
    137 C          21.1333   -0.8086   26.2744 C.3     6  UNL6       -0.0545
    138 H          20.3651    3.2379   28.2632 H       6  UNL6        0.0793
    139 C          21.0101   -2.2003   26.9156 C.3     6  UNL6       -0.0652
    140 C          20.0892    3.1869   27.2188 C.2     6  UNL6        0.0074
    141 N          19.2364    3.4192   25.1870 N.pl3   6  UNL6       -0.3166
    142 H          20.1545   -0.4891   25.8875 H       6  UNL6        0.0263
    143 H          20.3335   -2.1866   27.7812 H       6  UNL6        0.0230
    144 C          19.1006    3.8170   26.5105 C.2     6  UNL6        0.0072
    145 H          20.6182   -2.9429   26.2066 H       6  UNL6        0.0230
    146 H          18.8749    3.5840   23.1309 H       6  UNL6        0.0428
    147 C          18.3636    3.8093   24.0726 C.3     6  UNL6        0.0020
    148 H          18.1609    4.8865   24.1250 H       6  UNL6        0.0428
    149 H          18.3323    4.5092   26.8354 H       6  UNL6        0.0793
    150 H          17.4237    3.2478   24.1250 H       6  UNL6        0.0428
    151 H          19.8744   23.8197   14.2555 H       7  UNL7        0.0464
    152 H          19.8767   23.1213   12.6202 H       7  UNL7        0.0464
    153 H          19.9144   21.4815   14.5740 H       7  UNL7        0.0280
    154 C          19.2952   23.2165   13.5451 C.3     7  UNL7        0.0135
    155 C          18.9667   21.8492   14.1510 C.3     7  UNL7       -0.0374
    156 N          18.1042   24.0332   13.2111 N.pl3   7  UNL7       -0.3135
    157 H          19.0988   20.7572   12.2963 H       7  UNL7        0.0263
    158 H          19.2764   19.0496   14.1568 H       7  UNL7        0.0230
    159 H          18.2824   21.9751   15.0029 H       7  UNL7        0.0280
    160 H          17.9577   23.7568   11.0744 H       7  UNL7        0.0746
    161 C          17.5710   24.1888   11.9873 C.3     7  UNL7        0.1250
    162 C          18.4239   20.8074   13.1641 C.3     7  UNL7       -0.0545
    163 H          17.6557   24.8539   15.1530 H       7  UNL7        0.0793
    164 C          18.3007   19.4158   13.8053 C.3     7  UNL7       -0.0652
    165 C          17.3797   24.8030   14.1085 C.2     7  UNL7        0.0074
    166 N          16.5270   25.0352   12.0767 N.pl3   7  UNL7       -0.3166
    167 H          17.4451   21.1270   12.7772 H       7  UNL7        0.0263
    168 H          17.6241   19.4294   14.6709 H       7  UNL7        0.0230
    169 C          16.3912   25.4330   13.4002 C.2     7  UNL7        0.0072
    170 H          17.9088   18.6731   13.0963 H       7  UNL7        0.0230
    171 H          16.1655   25.2000   10.0206 H       7  UNL7        0.0428
    172 C          15.6542   25.4253   10.9623 C.3     7  UNL7        0.0020
    173 H          15.4515   26.5025   11.0147 H       7  UNL7        0.0428
    174 H          15.6229   26.1252   13.7252 H       7  UNL7        0.0793
    175 H          14.7143   24.8638   11.0148 H       7  UNL7        0.0428
    176 H          15.5619   16.5805   27.3657 H       8  UNL8        0.0464
    177 H          15.5642   15.8821   25.7305 H       8  UNL8        0.0464
    178 H          15.6019   14.2423   27.6843 H       8  UNL8        0.0280
    179 C          14.9827   15.9773   26.6554 C.3     8  UNL8        0.0135
    180 C          14.6542   14.6100   27.2613 C.3     8  UNL8       -0.0374
    181 N          13.7916   16.7940   26.3214 N.pl3   8  UNL8       -0.3135
    182 H          14.7862   13.5180   25.4066 H       8  UNL8        0.0263
    183 H          14.9639   11.8104   27.2671 H       8  UNL8        0.0230
    184 H          13.9699   14.7359   28.1131 H       8  UNL8        0.0280
    185 H          13.6451   16.5176   24.1846 H       8  UNL8        0.0746
    186 C          13.2584   16.9496   25.0976 C.3     8  UNL8        0.1250
    187 C          14.1114   13.5682   26.2744 C.3     8  UNL8       -0.0545
    188 H          13.3432   17.6147   28.2632 H       8  UNL8        0.0793
    189 C          13.9882   12.1766   26.9156 C.3     8  UNL8       -0.0652
    190 C          13.0672   17.5638   27.2188 C.2     8  UNL8        0.0074
    191 N          12.2145   17.7960   25.1870 N.pl3   8  UNL8       -0.3166
    192 H          13.1325   13.8878   25.8875 H       8  UNL8        0.0263
    193 H          13.3116   12.1902   27.7812 H       8  UNL8        0.0230
    194 C          12.0786   18.1938   26.5105 C.2     8  UNL8        0.0072
    195 H          13.5963   11.4339   26.2066 H       8  UNL8        0.0230
    196 H          11.8530   17.9608   23.1309 H       8  UNL8        0.0428
    197 C          11.3417   18.1861   24.0726 C.3     8  UNL8        0.0020
    198 H          11.1390   19.2633   24.1250 H       8  UNL8        0.0428
    199 H          11.3104   18.8860   26.8354 H       8  UNL8        0.0793
    200 H          10.4018   17.6246   24.1250 H       8  UNL8        0.0428
@<TRIPOS>BOND
     1    21    22    1
     2   121   122    1
     3   171   172    1
     4    71    72    1
     5   122   123    1
     6   122   125    1
     7   122   116    1
     8   172   173    1
     9   172   175    1
    10   172   166    1
    11    22    23    1
    12    22    25    1
    13    22    16    1
    14    72    73    1
    15    72    75    1
    16    72    66    1
    17    60    61    1
    18   160   161    1
    19    10    11    1
    20   110   111    1
    21    61    66    1
    22    61    56    1
    23   111   116    1
    24   111   106    1
    25    11    16    1
    26    11     6    1
    27   161   166    1
    28   161   156    1
    29    16    19    1
    30    66    69    1
    31   166   169    1
    32   116   119    1
    33   157   162    1
    34    57    62    1
    35     7    12    1
    36   107   112    1
    37    52    54    1
    38   152   154    1
    39   102   104    1
    40     2     4    1
    41    17    12    1
    42   117   112    1
    43    67    62    1
    44   167   162    1
    45    20    14    1
    46   170   164    1
    47    70    64    1
    48   120   114    1
    49   162   164    1
    50   162   155    1
    51    12    14    1
    52    12     5    1
    53   112   114    1
    54   112   105    1
    55    62    64    1
    56    62    55    1
    57    56    54    1
    58    56    65    1
    59     6     4    1
    60     6    15    1
    61   106   104    1
    62   106   115    1
    63   156   154    1
    64   156   165    1
    65    69    74    1
    66    69    65    2
    67    19    24    1
    68    19    15    2
    69   119   124    1
    70   119   115    2
    71   169   174    1
    72   169   165    2
    73    54    55    1
    74    54    51    1
    75   104   105    1
    76   104   101    1
    77     4     5    1
    78     4     1    1
    79   154   155    1
    80   154   151    1
    81    14     8    1
    82    14    18    1
    83   164   158    1
    84   164   168    1
    85    64    58    1
    86    64    68    1
    87   114   108    1
    88   114   118    1
    89    65    63    1
    90    15    13    1
    91   165   163    1
    92   115   113    1
    93    55    53    1
    94    55    59    1
    95   105   103    1
    96   105   109    1
    97     5     3    1
    98     5     9    1
    99   155   153    1
   100   155   159    1
   101    96    97    1
   102   146   147    1
   103   196   197    1
   104    46    47    1
   105    97    98    1
   106    97   100    1
   107    97    91    1
   108   147   148    1
   109   147   150    1
   110   147   141    1
   111   197   198    1
   112   197   200    1
   113   197   191    1
   114    47    48    1
   115    47    50    1
   116    47    41    1
   117   135   136    1
   118    35    36    1
   119   185   186    1
   120    85    86    1
   121   136   141    1
   122   136   131    1
   123    86    91    1
   124    86    81    1
   125    36    41    1
   126    36    31    1
   127   186   191    1
   128   186   181    1
   129   141   144    1
   130    41    44    1
   131   191   194    1
   132    91    94    1
   133    32    37    1
   134   132   137    1
   135    82    87    1
   136   182   187    1
   137   127   129    1
   138    27    29    1
   139    77    79    1
   140   177   179    1
   141    92    87    1
   142    42    37    1
   143   142   137    1
   144   192   187    1
   145    45    39    1
   146   195   189    1
   147   145   139    1
   148    95    89    1
   149   187   189    1
   150   187   180    1
   151    87    89    1
   152    87    80    1
   153    37    39    1
   154    37    30    1
   155   137   139    1
   156   137   130    1
   157   181   179    1
   158   181   190    1
   159    31    29    1
   160    31    40    1
   161   131   129    1
   162   131   140    1
   163    81    79    1
   164    81    90    1
   165    44    49    1
   166    44    40    2
   167   194   199    1
   168   194   190    2
   169    94    99    1
   170    94    90    2
   171   144   149    1
   172   144   140    2
   173   179   180    1
   174   179   176    1
   175   129   130    1
   176   129   126    1
   177    29    30    1
   178    29    26    1
   179    79    80    1
   180    79    76    1
   181   139   133    1
   182   139   143    1
   183   189   183    1
   184   189   193    1
   185    89    83    1
   186    89    93    1
   187    39    33    1
   188    39    43    1
   189   140   138    1
   190    90    88    1
   191    40    38    1
   192   190   188    1
   193    30    28    1
   194    30    34    1
   195   130   128    1
   196   130   134    1
   197    80    78    1
   198    80    84    1
   199   180   178    1
   200   180   184    1
