@<TRIPOS>MOLECULE
Lattice="32.018782 0.0 0.0 -14.043870532898428 28.753623292648026 0.0 -8.625062807759862 -14.478403582935226 26.22054754850901" Properties=species:S:1:pos:R:3 i=73 E=-1627.5706616179 pbc="T T T"
 320 312 0 0 0
SMALL
GASTEIGER

@<TRIPOS>ATOM
      1 N           2.6269    3.0669   12.4316 N.pl3   1  UNL1       -0.3135
      2 N           1.2553    4.0770   13.7917 N.pl3   1  UNL1       -0.3166
      3 C           2.2126    3.1355   13.7091 C.3     1  UNL1        0.1250
      4 C           1.0654    4.6292   12.5409 C.2     1  UNL1        0.0072
      5 C           0.6709    4.5825   15.0341 C.3     1  UNL1        0.0020
      6 H           2.6235    2.5738   14.5374 H       1  UNL1        0.0746
      7 H           0.3843    5.4513   12.3717 H       1  UNL1        0.0793
      8 H           0.1085    5.4899   14.8040 H       1  UNL1        0.0428
      9 H          -0.0014    3.8300   15.4596 H       1  UNL1        0.0428
     10 H           1.4778    4.8396   15.7277 H       1  UNL1        0.0428
     11 C           1.9251    3.9974   11.6869 C.2     1  UNL1        0.0074
     12 C           5.8119    3.5947   12.2005 C.3     1  UNL1       -0.0545
     13 H           4.0368    1.5921   12.7752 H       1  UNL1        0.0464
     14 H           5.2843    4.3496   12.7960 H       1  UNL1        0.0263
     15 H           6.2043    2.8476   12.9053 H       1  UNL1        0.0263
     16 C           6.9730    4.2555   11.4447 C.3     1  UNL1       -0.0652
     17 H           6.5979    5.0380   10.7694 H       1  UNL1        0.0230
     18 H           7.5353    3.5123   10.8582 H       1  UNL1        0.0230
     19 H           7.6825    4.7323   12.1349 H       1  UNL1        0.0230
     20 C           3.6789    2.1696   11.9152 C.3     1  UNL1        0.0135
     21 C           4.8320    2.9141   11.2377 C.3     1  UNL1       -0.0374
     22 H           3.1987    1.4631   11.2250 H       1  UNL1        0.0464
     23 H           5.3671    2.1670   10.6331 H       1  UNL1        0.0280
     24 H           4.4299    3.6532   10.5307 H       1  UNL1        0.0280
     25 H           2.1153    4.1628   10.6372 H       1  UNL1        0.0793
     26 F           5.4041    8.7993   14.8720 F       2  UNL2       -0.1492
     27 F           4.7467    9.4587   11.7509 F       2  UNL2       -0.1492
     28 F           6.1689    7.1467   13.6279 F       2  UNL2       -0.1492
     29 F           5.9536    6.8920   15.8067 F       2  UNL2       -0.1492
     30 O           2.9531    7.2420   15.6880 O.2     2  UNL2       -0.1468
     31 C           5.3921    7.4564   14.6999 C.3     2  UNL2        0.5387
     32 F           2.6441    9.8424   11.1984 F       2  UNL2       -0.1492
     33 C           3.6804    8.9679   11.0747 C.3     2  UNL2        0.5387
     34 F           4.0039    8.8882    9.7492 F       2  UNL2       -0.1492
     35 S           3.6414    6.8096   14.4808 S.O2    2  UNL2        0.1638
     36 S           3.1644    7.2752   11.6793 S.O2    2  UNL2        0.1638
     37 O           3.8484    5.3763   14.2693 O.2     2  UNL2       -0.1468
     38 O           1.8567    7.1203   11.0395 O.2     2  UNL2       -0.1468
     39 O           4.2382    6.3649   11.2916 O.2     2  UNL2       -0.1468
     40 N           2.9962    7.5948   13.2436 N.3     2  UNL2        0.0775
     41 N          -1.6856   -4.1723   25.5419 N.pl3   3  UNL3       -0.3135
     42 N          -3.0572   -3.1622   26.9020 N.pl3   3  UNL3       -0.3166
     43 C          -2.0999   -4.1037   26.8194 C.3     3  UNL3        0.1250
     44 C          -3.2471   -2.6100   25.6512 C.2     3  UNL3        0.0072
     45 C          -3.6416   -2.6567   28.1444 C.3     3  UNL3        0.0020
     46 H          -1.6891   -4.6654   27.6477 H       3  UNL3        0.0746
     47 H          -3.9282   -1.7879   25.4820 H       3  UNL3        0.0793
     48 H          -4.2041   -1.7493   27.9143 H       3  UNL3        0.0428
     49 H          -4.3139   -3.4092   28.5699 H       3  UNL3        0.0428
     50 H          -2.8347   -2.3996   28.8380 H       3  UNL3        0.0428
     51 C          -2.3874   -3.2418   24.7972 C.2     3  UNL3        0.0074
     52 C           1.4993   -3.6445   25.3108 C.3     3  UNL3       -0.0545
     53 H          -0.2757   -5.6471   25.8855 H       3  UNL3        0.0464
     54 H           0.9718   -2.8896   25.9063 H       3  UNL3        0.0263
     55 H           1.8918   -4.3916   26.0155 H       3  UNL3        0.0263
     56 C           2.6605   -2.9837   24.5550 C.3     3  UNL3       -0.0652
     57 H           2.2854   -2.2012   23.8797 H       3  UNL3        0.0230
     58 H           3.2228   -3.7269   23.9685 H       3  UNL3        0.0230
     59 H           3.3699   -2.5069   25.2452 H       3  UNL3        0.0230
     60 C          -0.6336   -5.0696   25.0255 C.3     3  UNL3        0.0135
     61 C           0.5195   -4.3251   24.3480 C.3     3  UNL3       -0.0374
     62 H          -1.1138   -5.7761   24.3353 H       3  UNL3        0.0464
     63 H           1.0546   -5.0722   23.7434 H       3  UNL3        0.0280
     64 H           0.1173   -3.5860   23.6409 H       3  UNL3        0.0280
     65 H          -2.1972   -3.0764   23.7475 H       3  UNL3        0.0793
     66 F           1.0916    1.5601   27.9823 F       4  UNL4       -0.1492
     67 F           0.4342    2.2195   24.8612 F       4  UNL4       -0.1492
     68 F           1.8563   -0.0925   26.7382 F       4  UNL4       -0.1492
     69 F           1.6410   -0.3472   28.9170 F       4  UNL4       -0.1492
     70 O          -1.3594    0.0028   28.7983 O.2     4  UNL4       -0.1468
     71 C           1.0796    0.2172   27.8101 C.3     4  UNL4        0.5387
     72 F          -1.6685    2.6032   24.3087 F       4  UNL4       -0.1492
     73 C          -0.6321    1.7287   24.1849 C.3     4  UNL4        0.5387
     74 F          -0.3086    1.6490   22.8595 F       4  UNL4       -0.1492
     75 S          -0.6711   -0.4296   27.5911 S.O2    4  UNL4        0.1638
     76 S          -1.1481    0.0360   24.7896 S.O2    4  UNL4        0.1638
     77 O          -0.4642   -1.8629   27.3795 O.2     4  UNL4       -0.1468
     78 O          -2.4558   -0.1189   24.1498 O.2     4  UNL4       -0.1468
     79 O          -0.0743   -0.8743   24.4019 O.2     4  UNL4       -0.1468
     80 N          -1.3163    0.3556   26.3538 N.3     4  UNL4        0.0775
     81 N          -4.3950   17.4437   12.4316 N.pl3   5  UNL5       -0.3135
     82 N          -5.7666   18.4538   13.7917 N.pl3   5  UNL5       -0.3166
     83 C          -4.8093   17.5123   13.7091 C.3     5  UNL5        0.1250
     84 C          -5.9565   19.0060   12.5409 C.2     5  UNL5        0.0072
     85 C          -6.3510   18.9593   15.0341 C.3     5  UNL5        0.0020
     86 H          -4.3985   16.9506   14.5374 H       5  UNL5        0.0746
     87 H          -6.6376   19.8282   12.3717 H       5  UNL5        0.0793
     88 H          -6.9135   19.8667   14.8040 H       5  UNL5        0.0428
     89 H          -7.0233   18.2069   15.4596 H       5  UNL5        0.0428
     90 H          -5.5441   19.2164   15.7277 H       5  UNL5        0.0428
     91 C          -5.0968   18.3742   11.6869 C.2     5  UNL5        0.0074
     92 C          -1.2101   17.9715   12.2005 C.3     5  UNL5       -0.0545
     93 H          -2.9851   15.9689   12.7752 H       5  UNL5        0.0464
     94 H          -1.7376   18.7264   12.7960 H       5  UNL5        0.0263
     95 H          -0.8176   17.2244   12.9053 H       5  UNL5        0.0263
     96 C          -0.0489   18.6323   11.4447 C.3     5  UNL5       -0.0652
     97 H          -0.4240   19.4148   10.7694 H       5  UNL5        0.0230
     98 H           0.5134   17.8892   10.8582 H       5  UNL5        0.0230
     99 H           0.6605   19.1091   12.1349 H       5  UNL5        0.0230
    100 C          -3.3430   16.5465   11.9152 C.3     5  UNL5        0.0135
    101 C          -2.1899   17.2909   11.2377 C.3     5  UNL5       -0.0374
    102 H          -3.8233   15.8399   11.2250 H       5  UNL5        0.0464
    103 H          -1.6548   16.5438   10.6331 H       5  UNL5        0.0280
    104 H          -2.5921   18.0300   10.5307 H       5  UNL5        0.0280
    105 H          -4.9066   18.5396   10.6372 H       5  UNL5        0.0793
    106 F          -1.6178   23.1761   14.8720 F       6  UNL6       -0.1492
    107 F          -2.2752   23.8356   11.7509 F       6  UNL6       -0.1492
    108 F          -0.8531   21.5235   13.6279 F       6  UNL6       -0.1492
    109 F          -1.0684   21.2688   15.8067 F       6  UNL6       -0.1492
    110 O          -4.0688   21.6188   15.6880 O.2     6  UNL6       -0.1468
    111 C          -1.6298   21.8332   14.6999 C.3     6  UNL6        0.5387
    112 F          -4.3779   24.2192   11.1984 F       6  UNL6       -0.1492
    113 C          -3.3415   23.3448   11.0747 C.3     6  UNL6        0.5387
    114 F          -3.0180   23.2651    9.7492 F       6  UNL6       -0.1492
    115 S          -3.3805   21.1864   14.4808 S.O2    6  UNL6        0.1638
    116 S          -3.8575   21.6520   11.6793 S.O2    6  UNL6        0.1638
    117 O          -3.1736   19.7532   14.2693 O.2     6  UNL6       -0.1468
    118 O          -5.1652   21.4971   11.0395 O.2     6  UNL6       -0.1468
    119 O          -2.7837   20.7418   11.2916 O.2     6  UNL6       -0.1468
    120 N          -4.0257   21.9716   13.2436 N.3     6  UNL6        0.0775
    121 N          -8.7075   10.2045   25.5419 N.pl3   7  UNL7       -0.3135
    122 N         -10.0791   11.2146   26.9020 N.pl3   7  UNL7       -0.3166
    123 C          -9.1218   10.2731   26.8194 C.3     7  UNL7        0.1250
    124 C         -10.2691   11.7668   25.6512 C.2     7  UNL7        0.0072
    125 C         -10.6635   11.7201   28.1444 C.3     7  UNL7        0.0020
    126 H          -8.7110    9.7114   27.6477 H       7  UNL7        0.0746
    127 H         -10.9502   12.5890   25.4820 H       7  UNL7        0.0793
    128 H         -11.2260   12.6275   27.9143 H       7  UNL7        0.0428
    129 H         -11.3359   10.9677   28.5699 H       7  UNL7        0.0428
    130 H          -9.8567   11.9772   28.8380 H       7  UNL7        0.0428
    131 C          -9.4093   11.1350   24.7972 C.2     7  UNL7        0.0074
    132 C          -5.5226   10.7323   25.3108 C.3     7  UNL7       -0.0545
    133 H          -7.2977    8.7297   25.8855 H       7  UNL7        0.0464
    134 H          -6.0501   11.4872   25.9063 H       7  UNL7        0.0263
    135 H          -5.1301    9.9852   26.0155 H       7  UNL7        0.0263
    136 C          -4.3615   11.3931   24.5550 C.3     7  UNL7       -0.0652
    137 H          -4.7366   12.1756   23.8797 H       7  UNL7        0.0230
    138 H          -3.7991   10.6500   23.9685 H       7  UNL7        0.0230
    139 H          -3.6520   11.8699   25.2452 H       7  UNL7        0.0230
    140 C          -7.6556    9.3073   25.0255 C.3     7  UNL7        0.0135
    141 C          -6.5024   10.0517   24.3480 C.3     7  UNL7       -0.0374
    142 H          -8.1358    8.6007   24.3353 H       7  UNL7        0.0464
    143 H          -5.9674    9.3046   23.7434 H       7  UNL7        0.0280
    144 H          -6.9046   10.7908   23.6409 H       7  UNL7        0.0280
    145 H          -9.2191   11.3004   23.7475 H       7  UNL7        0.0793
    146 F          -5.9303   15.9369   27.9823 F       8  UNL8       -0.1492
    147 F          -6.5878   16.5964   24.8612 F       8  UNL8       -0.1492
    148 F          -5.1656   14.2843   26.7382 F       8  UNL8       -0.1492
    149 F          -5.3809   14.0296   28.9170 F       8  UNL8       -0.1492
    150 O          -8.3814   14.3796   28.7983 O.2     8  UNL8       -0.1468
    151 C          -5.9424   14.5940   27.8101 C.3     8  UNL8        0.5387
    152 F          -8.6904   16.9800   24.3087 F       8  UNL8       -0.1492
    153 C          -7.6541   16.1056   24.1849 C.3     8  UNL8        0.5387
    154 F          -7.3305   16.0259   22.8595 F       8  UNL8       -0.1492
    155 S          -7.6931   13.9472   27.5911 S.O2    8  UNL8        0.1638
    156 S          -8.1700   14.4128   24.7896 S.O2    8  UNL8        0.1638
    157 O          -7.4861   12.5140   27.3795 O.2     8  UNL8       -0.1468
    158 O          -9.4777   14.2579   24.1498 O.2     8  UNL8       -0.1468
    159 O          -7.0963   13.5026   24.4019 O.2     8  UNL8       -0.1468
    160 N          -8.3383   14.7324   26.3538 N.3     8  UNL8        0.0775
    161 N          18.6363    3.0669   12.4316 N.pl3   9  UNL9       -0.3135
    162 N          17.2647    4.0770   13.7917 N.pl3   9  UNL9       -0.3166
    163 C          18.2220    3.1355   13.7091 C.3     9  UNL9        0.1250
    164 C          17.0748    4.6292   12.5409 C.2     9  UNL9        0.0072
    165 C          16.6803    4.5825   15.0341 C.3     9  UNL9        0.0020
    166 H          18.6329    2.5738   14.5374 H       9  UNL9        0.0746
    167 H          16.3937    5.4513   12.3717 H       9  UNL9        0.0793
    168 H          16.1178    5.4899   14.8040 H       9  UNL9        0.0428
    169 H          16.0080    3.8300   15.4596 H       9  UNL9        0.0428
    170 H          17.4872    4.8396   15.7277 H       9  UNL9        0.0428
    171 C          17.9345    3.9974   11.6869 C.2     9  UNL9        0.0074
    172 C          21.8213    3.5947   12.2005 C.3     9  UNL9       -0.0545
    173 H          20.0462    1.5921   12.7752 H       9  UNL9        0.0464
    174 H          21.2937    4.3496   12.7960 H       9  UNL9        0.0263
    175 H          22.2137    2.8476   12.9053 H       9  UNL9        0.0263
    176 C          22.9824    4.2555   11.4447 C.3     9  UNL9       -0.0652
    177 H          22.6073    5.0380   10.7694 H       9  UNL9        0.0230
    178 H          23.5447    3.5123   10.8582 H       9  UNL9        0.0230
    179 H          23.6919    4.7323   12.1349 H       9  UNL9        0.0230
    180 C          19.6883    2.1696   11.9152 C.3     9  UNL9        0.0135
    181 C          20.8414    2.9141   11.2377 C.3     9  UNL9       -0.0374
    182 H          19.2081    1.4631   11.2250 H       9  UNL9        0.0464
    183 H          21.3765    2.1670   10.6331 H       9  UNL9        0.0280
    184 H          20.4393    3.6532   10.5307 H       9  UNL9        0.0280
    185 H          18.1247    4.1628   10.6372 H       9  UNL9        0.0793
    186 F          21.4135    8.7993   14.8720 F      10  UNL10      -0.1492
    187 F          20.7561    9.4587   11.7509 F      10  UNL10      -0.1492
    188 F          22.1783    7.1467   13.6279 F      10  UNL10      -0.1492
    189 F          21.9630    6.8920   15.8067 F      10  UNL10      -0.1492
    190 O          18.9625    7.2420   15.6880 O.2    10  UNL10      -0.1468
    191 C          21.4015    7.4564   14.6999 C.3    10  UNL10       0.5387
    192 F          18.6534    9.8424   11.1984 F      10  UNL10      -0.1492
    193 C          19.6898    8.9679   11.0747 C.3    10  UNL10       0.5387
    194 F          20.0133    8.8882    9.7492 F      10  UNL10      -0.1492
    195 S          19.6508    6.8096   14.4808 S.O2   10  UNL10       0.1638
    196 S          19.1738    7.2752   11.6793 S.O2   10  UNL10       0.1638
    197 O          19.8577    5.3763   14.2693 O.2    10  UNL10      -0.1468
    198 O          17.8661    7.1203   11.0395 O.2    10  UNL10      -0.1468
    199 O          20.2476    6.3649   11.2916 O.2    10  UNL10      -0.1468
    200 N          19.0056    7.5948   13.2436 N.3    10  UNL10       0.0775
    201 N          14.3238   -4.1723   25.5419 N.pl3  11  UNL11      -0.3135
    202 N          12.9522   -3.1622   26.9020 N.pl3  11  UNL11      -0.3166
    203 C          13.9095   -4.1037   26.8194 C.3    11  UNL11       0.1250
    204 C          12.7622   -2.6100   25.6512 C.2    11  UNL11       0.0072
    205 C          12.3678   -2.6567   28.1444 C.3    11  UNL11       0.0020
    206 H          14.3203   -4.6654   27.6477 H      11  UNL11       0.0746
    207 H          12.0812   -1.7879   25.4820 H      11  UNL11       0.0793
    208 H          11.8053   -1.7493   27.9143 H      11  UNL11       0.0428
    209 H          11.6955   -3.4092   28.5699 H      11  UNL11       0.0428
    210 H          13.1747   -2.3996   28.8380 H      11  UNL11       0.0428
    211 C          13.6220   -3.2418   24.7972 C.2    11  UNL11       0.0074
    212 C          17.5087   -3.6445   25.3108 C.3    11  UNL11      -0.0545
    213 H          15.7337   -5.6471   25.8855 H      11  UNL11       0.0464
    214 H          16.9812   -2.8896   25.9063 H      11  UNL11       0.0263
    215 H          17.9012   -4.3916   26.0155 H      11  UNL11       0.0263
    216 C          18.6699   -2.9837   24.5550 C.3    11  UNL11      -0.0652
    217 H          18.2947   -2.2012   23.8797 H      11  UNL11       0.0230
    218 H          19.2322   -3.7269   23.9685 H      11  UNL11       0.0230
    219 H          19.3793   -2.5069   25.2452 H      11  UNL11       0.0230
    220 C          15.3757   -5.0696   25.0255 C.3    11  UNL11       0.0135
    221 C          16.5289   -4.3251   24.3480 C.3    11  UNL11      -0.0374
    222 H          14.8955   -5.7761   24.3353 H      11  UNL11       0.0464
    223 H          17.0640   -5.0722   23.7434 H      11  UNL11       0.0280
    224 H          16.1267   -3.5860   23.6409 H      11  UNL11       0.0280
    225 H          13.8122   -3.0764   23.7475 H      11  UNL11       0.0793
    226 F          17.1010    1.5601   27.9823 F      12  UNL12      -0.1492
    227 F          16.4436    2.2195   24.8612 F      12  UNL12      -0.1492
    228 F          17.8657   -0.0925   26.7382 F      12  UNL12      -0.1492
    229 F          17.6504   -0.3472   28.9170 F      12  UNL12      -0.1492
    230 O          14.6500    0.0028   28.7983 O.2    12  UNL12      -0.1468
    231 C          17.0890    0.2172   27.8101 C.3    12  UNL12       0.5387
    232 F          14.3409    2.6032   24.3087 F      12  UNL12      -0.1492
    233 C          15.3773    1.7287   24.1849 C.3    12  UNL12       0.5387
    234 F          15.7008    1.6490   22.8595 F      12  UNL12      -0.1492
    235 S          15.3382   -0.4296   27.5911 S.O2   12  UNL12       0.1638
    236 S          14.8613    0.0360   24.7896 S.O2   12  UNL12       0.1638
    237 O          15.5452   -1.8629   27.3795 O.2    12  UNL12      -0.1468
    238 O          13.5536   -0.1189   24.1498 O.2    12  UNL12      -0.1468
    239 O          15.9351   -0.8743   24.4019 O.2    12  UNL12      -0.1468
    240 N          14.6930    0.3556   26.3538 N.3    12  UNL12       0.0775
    241 N          11.6144   17.4437   12.4316 N.pl3  13  UNL13      -0.3135
    242 N          10.2428   18.4538   13.7917 N.pl3  13  UNL13      -0.3166
    243 C          11.2001   17.5123   13.7091 C.3    13  UNL13       0.1250
    244 C          10.0528   19.0060   12.5409 C.2    13  UNL13       0.0072
    245 C           9.6584   18.9593   15.0341 C.3    13  UNL13       0.0020
    246 H          11.6109   16.9506   14.5374 H      13  UNL13       0.0746
    247 H           9.3717   19.8282   12.3717 H      13  UNL13       0.0793
    248 H           9.0959   19.8667   14.8040 H      13  UNL13       0.0428
    249 H           8.9860   18.2069   15.4596 H      13  UNL13       0.0428
    250 H          10.4653   19.2164   15.7277 H      13  UNL13       0.0428
    251 C          10.9126   18.3742   11.6869 C.2    13  UNL13       0.0074
    252 C          14.7993   17.9715   12.2005 C.3    13  UNL13      -0.0545
    253 H          13.0243   15.9689   12.7752 H      13  UNL13       0.0464
    254 H          14.2718   18.7264   12.7960 H      13  UNL13       0.0263
    255 H          15.1918   17.2244   12.9053 H      13  UNL13       0.0263
    256 C          15.9604   18.6323   11.4447 C.3    13  UNL13      -0.0652
    257 H          15.5853   19.4148   10.7694 H      13  UNL13       0.0230
    258 H          16.5228   17.8892   10.8582 H      13  UNL13       0.0230
    259 H          16.6699   19.1091   12.1349 H      13  UNL13       0.0230
    260 C          12.6663   16.5465   11.9152 C.3    13  UNL13       0.0135
    261 C          13.8195   17.2909   11.2377 C.3    13  UNL13      -0.0374
    262 H          12.1861   15.8399   11.2250 H      13  UNL13       0.0464
    263 H          14.3546   16.5438   10.6331 H      13  UNL13       0.0280
    264 H          13.4173   18.0300   10.5307 H      13  UNL13       0.0280
    265 H          11.1028   18.5396   10.6372 H      13  UNL13       0.0793
    266 F          14.3916   23.1761   14.8720 F      14  UNL14      -0.1492
    267 F          13.7341   23.8356   11.7509 F      14  UNL14      -0.1492
    268 F          15.1563   21.5235   13.6279 F      14  UNL14      -0.1492
    269 F          14.9410   21.2688   15.8067 F      14  UNL14      -0.1492
    270 O          11.9406   21.6188   15.6880 O.2    14  UNL14      -0.1468
    271 C          14.3796   21.8332   14.6999 C.3    14  UNL14       0.5387
    272 F          11.6315   24.2192   11.1984 F      14  UNL14      -0.1492
    273 C          12.6678   23.3448   11.0747 C.3    14  UNL14       0.5387
    274 F          12.9914   23.2651    9.7492 F      14  UNL14      -0.1492
    275 S          12.6288   21.1864   14.4808 S.O2   14  UNL14       0.1638
    276 S          12.1519   21.6520   11.6793 S.O2   14  UNL14       0.1638
    277 O          12.8358   19.7532   14.2693 O.2    14  UNL14      -0.1468
    278 O          10.8442   21.4971   11.0395 O.2    14  UNL14      -0.1468
    279 O          13.2257   20.7418   11.2916 O.2    14  UNL14      -0.1468
    280 N          11.9836   21.9716   13.2436 N.3    14  UNL14       0.0775
    281 N           7.3018   10.2045   25.5419 N.pl3  15  UNL15      -0.3135
    282 N           5.9302   11.2146   26.9020 N.pl3  15  UNL15      -0.3166
    283 C           6.8876   10.2731   26.8194 C.3    15  UNL15       0.1250
    284 C           5.7403   11.7668   25.6512 C.2    15  UNL15       0.0072
    285 C           5.3459   11.7201   28.1444 C.3    15  UNL15       0.0020
    286 H           7.2984    9.7114   27.6477 H      15  UNL15       0.0746
    287 H           5.0592   12.5890   25.4820 H      15  UNL15       0.0793
    288 H           4.7834   12.6275   27.9143 H      15  UNL15       0.0428
    289 H           4.6735   10.9677   28.5699 H      15  UNL15       0.0428
    290 H           6.1527   11.9772   28.8380 H      15  UNL15       0.0428
    291 C           6.6001   11.1350   24.7972 C.2    15  UNL15       0.0074
    292 C          10.4868   10.7323   25.3108 C.3    15  UNL15      -0.0545
    293 H           8.7117    8.7297   25.8855 H      15  UNL15       0.0464
    294 H           9.9593   11.4872   25.9063 H      15  UNL15       0.0263
    295 H          10.8793    9.9852   26.0155 H      15  UNL15       0.0263
    296 C          11.6479   11.3931   24.5550 C.3    15  UNL15      -0.0652
    297 H          11.2728   12.1756   23.8797 H      15  UNL15       0.0230
    298 H          12.2102   10.6500   23.9685 H      15  UNL15       0.0230
    299 H          12.3574   11.8699   25.2452 H      15  UNL15       0.0230
    300 C           8.3538    9.3073   25.0255 C.3    15  UNL15       0.0135
    301 C           9.5070   10.0517   24.3480 C.3    15  UNL15      -0.0374
    302 H           7.8736    8.6007   24.3353 H      15  UNL15       0.0464
    303 H          10.0420    9.3046   23.7434 H      15  UNL15       0.0280
    304 H           9.1048   10.7908   23.6409 H      15  UNL15       0.0280
    305 H           6.7903   11.3004   23.7475 H      15  UNL15       0.0793
    306 F          10.0791   15.9369   27.9823 F      16  UNL16      -0.1492
    307 F           9.4216   16.5964   24.8612 F      16  UNL16      -0.1492
    308 F          10.8438   14.2843   26.7382 F      16  UNL16      -0.1492
    309 F          10.6285   14.0296   28.9170 F      16  UNL16      -0.1492
    310 O           7.6280   14.3796   28.7983 O.2    16  UNL16      -0.1468
    311 C          10.0670   14.5940   27.8101 C.3    16  UNL16       0.5387
    312 F           7.3190   16.9800   24.3087 F      16  UNL16      -0.1492
    313 C           8.3553   16.1056   24.1849 C.3    16  UNL16       0.5387
    314 F           8.6789   16.0259   22.8595 F      16  UNL16      -0.1492
    315 S           8.3163   13.9472   27.5911 S.O2   16  UNL16       0.1638
    316 S           7.8394   14.4128   24.7896 S.O2   16  UNL16       0.1638
    317 O           8.5233   12.5140   27.3795 O.2    16  UNL16      -0.1468
    318 O           6.5316   14.2579   24.1498 O.2    16  UNL16      -0.1468
    319 O           8.9131   13.5026   24.4019 O.2    16  UNL16      -0.1468
    320 N           7.6711   14.7324   26.3538 N.3    16  UNL16       0.0775
@<TRIPOS>BOND
     1   194   193    1
     2   114   113    1
     3    34    33    1
     4   274   273    1
     5    24    21    1
     6   264   261    1
     7   184   181    1
     8   104   101    1
     9   103   101    1
    10    23    21    1
    11   263   261    1
    12   183   181    1
    13   105    91    1
    14   265   251    1
    15    25    11    1
    16   185   171    1
    17    17    16    1
    18   177   176    1
    19   257   256    1
    20    97    96    1
    21    18    16    1
    22   258   256    1
    23   178   176    1
    24    98    96    1
    25   118   116    2
    26   198   196    2
    27    38    36    2
    28   278   276    2
    29    33    32    1
    30    33    36    1
    31    33    27    1
    32   193   192    1
    33   193   196    1
    34   193   187    1
    35   113   112    1
    36   113   116    1
    37   113   107    1
    38   273   272    1
    39   273   276    1
    40   273   267    1
    41    22    20    1
    42   102   100    1
    43   182   180    1
    44   262   260    1
    45   261   260    1
    46   261   252    1
    47   101   100    1
    48   101    92    1
    49   181   180    1
    50   181   172    1
    51    21    20    1
    52    21    12    1
    53   119   116    2
    54   199   196    2
    55   279   276    2
    56    39    36    2
    57    16    19    1
    58    16    12    1
    59   256   259    1
    60   256   252    1
    61    96    99    1
    62    96    92    1
    63   176   179    1
    64   176   172    1
    65   196   200    1
    66   116   120    1
    67   276   280    1
    68    36    40    1
    69   171   161    1
    70   171   164    2
    71   251   241    1
    72   251   244    2
    73    91    81    1
    74    91    84    2
    75    11     1    1
    76    11     4    2
    77   100    81    1
    78   100    93    1
    79   260   241    1
    80   260   253    1
    81   180   161    1
    82   180   173    1
    83    20     1    1
    84    20    13    1
    85    12    14    1
    86    12    15    1
    87    92    94    1
    88    92    95    1
    89   252   254    1
    90   252   255    1
    91   172   174    1
    92   172   175    1
    93     7     4    1
    94    87    84    1
    95   167   164    1
    96   247   244    1
    97   161   163    1
    98   241   243    1
    99     1     3    1
   100    81    83    1
   101    84    82    1
   102     4     2    1
   103   244   242    1
   104   164   162    1
   105   200   195    1
   106   280   275    1
   107    40    35    1
   108   120   115    1
   109   188   191    1
   110   268   271    1
   111    28    31    1
   112   108   111    1
   113    83    82    1
   114    83    86    1
   115     3     2    1
   116     3     6    1
   117   243   242    1
   118   243   246    1
   119   163   162    1
   120   163   166    1
   121   242   245    1
   122     2     5    1
   123   162   165    1
   124    82    85    1
   125   117   115    2
   126   197   195    2
   127    37    35    2
   128   277   275    2
   129    35    31    1
   130    35    30    2
   131   195   191    1
   132   195   190    2
   133   275   271    1
   134   275   270    2
   135   115   111    1
   136   115   110    2
   137   271   266    1
   138   271   269    1
   139    31    26    1
   140    31    29    1
   141   191   186    1
   142   191   189    1
   143   111   106    1
   144   111   109    1
   145    88    85    1
   146   168   165    1
   147   248   245    1
   148     8     5    1
   149     5     9    1
   150     5    10    1
   151    85    89    1
   152    85    90    1
   153   165   169    1
   154   165   170    1
   155   245   249    1
   156   245   250    1
   157   154   153    1
   158    74    73    1
   159   234   233    1
   160   314   313    1
   161    64    61    1
   162   224   221    1
   163   144   141    1
   164   304   301    1
   165   303   301    1
   166    63    61    1
   167   143   141    1
   168   223   221    1
   169   305   291    1
   170    65    51    1
   171   145   131    1
   172   225   211    1
   173   137   136    1
   174   217   216    1
   175   297   296    1
   176    57    56    1
   177   298   296    1
   178    58    56    1
   179   218   216    1
   180   138   136    1
   181   318   316    2
   182    78    76    2
   183   158   156    2
   184   238   236    2
   185    73    72    1
   186    73    76    1
   187    73    67    1
   188   313   312    1
   189   313   316    1
   190   313   307    1
   191   153   152    1
   192   153   156    1
   193   153   147    1
   194   233   232    1
   195   233   236    1
   196   233   227    1
   197   142   140    1
   198   302   300    1
   199   222   220    1
   200    62    60    1
   201    61    60    1
   202    61    52    1
   203   141   140    1
   204   141   132    1
   205   301   300    1
   206   301   292    1
   207   221   220    1
   208   221   212    1
   209   239   236    2
   210   159   156    2
   211   319   316    2
   212    79    76    2
   213   136   139    1
   214   136   132    1
   215   296   299    1
   216   296   292    1
   217    56    59    1
   218    56    52    1
   219   216   219    1
   220   216   212    1
   221   316   320    1
   222   236   240    1
   223   156   160    1
   224    76    80    1
   225   131   121    1
   226   131   124    2
   227   291   281    1
   228   291   284    2
   229    51    41    1
   230    51    44    2
   231   211   201    1
   232   211   204    2
   233   300   281    1
   234   300   293    1
   235    60    41    1
   236    60    53    1
   237   220   201    1
   238   220   213    1
   239   140   121    1
   240   140   133    1
   241   292   294    1
   242   292   295    1
   243    52    54    1
   244    52    55    1
   245   132   134    1
   246   132   135    1
   247   212   214    1
   248   212   215    1
   249    47    44    1
   250   127   124    1
   251   207   204    1
   252   287   284    1
   253   281   283    1
   254    41    43    1
   255   121   123    1
   256   201   203    1
   257   284   282    1
   258    44    42    1
   259   204   202    1
   260   124   122    1
   261   320   315    1
   262    80    75    1
   263   160   155    1
   264   240   235    1
   265    68    71    1
   266   308   311    1
   267   228   231    1
   268   148   151    1
   269    43    42    1
   270    43    46    1
   271   123   122    1
   272   123   126    1
   273   203   202    1
   274   203   206    1
   275   283   282    1
   276   283   286    1
   277    42    45    1
   278   282   285    1
   279   202   205    1
   280   122   125    1
   281   237   235    2
   282   317   315    2
   283    77    75    2
   284   157   155    2
   285   155   151    1
   286   155   150    2
   287   315   311    1
   288   315   310    2
   289    75    71    1
   290    75    70    2
   291   235   231    1
   292   235   230    2
   293   311   306    1
   294   311   309    1
   295   151   146    1
   296   151   149    1
   297    71    66    1
   298    71    69    1
   299   231   226    1
   300   231   229    1
   301   288   285    1
   302   208   205    1
   303    48    45    1
   304   128   125    1
   305   125   129    1
   306   125   130    1
   307   205   209    1
   308   205   210    1
   309   285   289    1
   310   285   290    1
   311    45    49    1
   312    45    50    1
