@<TRIPOS>MOLECULE
image0
 3348 3684 0 0 0
SMALL
GASTEIGER

@<TRIPOS>ATOM
      1 TI         -2.8684    2.1155   11.2652 Ti      1  UNL1        0.0000
      2 TI          7.8027    5.3833    1.8444 Ti      1  UNL1        0.0000
      3 TI          1.3526   -1.6735    9.4170 Ti      1  UNL1        0.0000
      4 TI          2.5117    7.5426    3.6484 Ti      1  UNL1        0.0000
      5 TI          1.4446    9.1874    1.7520 Ti      1  UNL1        0.0000
      6 TI          3.2594   -1.8643   11.3595 Ti      1  UNL1        0.0000
      7 TI         -1.8699    0.4160    9.3660 Ti      1  UNL1        0.0000
      8 TI          5.8159    5.6142    3.7033 Ti      1  UNL1        0.0000
      9 H           3.7469    1.6527    8.5834 H       1  UNL1        0.0000
     10 H          -7.0248   10.1428    6.4782 H       1  UNL1        0.0000
     11 H           4.4315   11.0107    4.6503 H       1  UNL1        0.0000
     12 H          -2.5037    6.0280   11.0484 H       1  UNL1        0.0000
     13 H           8.7487    1.5074    2.1552 H       2  UNL2        0.0000
     14 H          -6.8016    1.2219   10.9036 H       1  UNL1        0.0000
     15 H          11.1141    7.5039    2.0291 H      11  UNL11       0.0000
     16 H           4.3727   -5.8619   10.9625 H       1  UNL1        0.0000
     17 H          -2.5890    8.4562    2.0957 H       1  UNL1        0.0000
     18 H           4.6569    3.2042    6.8269 H       1  UNL1        0.0000
     19 H          -0.0453    3.6704    8.4060 H       1  UNL1        0.0000
     20 H          12.4409   -1.8282    6.3785 H       1  UNL1        0.0000
     21 H          -2.3273    0.3319   12.9842 H       1  UNL1        0.0000
     22 H           5.9273    5.0775    0.1546 H       1  UNL1        0.0000
     23 H           3.7614   -2.5066    5.8447 H       1  UNL1        0.0000
     24 H           0.7456    9.3142    7.2795 H       1  UNL1        0.0000
     25 H          -6.0599    3.6612    9.0374 H       1  UNL1        0.0000
     26 H          10.6412    3.3934    4.1322 H       1  UNL1        0.0000
     27 H          -3.7285    2.2987    5.6889 H       1  UNL1        0.0000
     28 H          -1.7040   10.9034    4.1249 H       1  UNL1        0.0000
     29 H           1.7334   12.3010    2.6096 H       1  UNL1        0.0000
     30 H           8.6680   -0.5172    3.3557 H       2  UNL2        0.0000
     31 H           4.6066    7.2974    2.2978 H       1  UNL1        0.0000
     32 H           0.2155    0.1346   10.7192 H       1  UNL1        0.0000
     33 H           7.4152    0.2188    9.7284 H       1  UNL1        0.0000
     34 H           5.9555   -0.3025   10.4833 H       1  UNL1        0.0000
     35 H           7.8285    4.6710    8.6325 H       1  UNL1        0.0000
     36 H           7.2376    5.0115    7.0176 H       1  UNL1        0.0000
     37 H           7.0981   -4.7498    9.5342 H       1  UNL1        0.0000
     38 H           5.7840   -3.6950   10.0002 H       1  UNL1        0.0000
     39 H           1.4114    1.9116    9.3560 H       1  UNL1        0.0000
     40 H           0.8638    5.2270    6.6485 H       1  UNL1        0.0000
     41 H           5.7409    9.0694    3.8453 H       1  UNL1        0.0000
     42 H           7.9990    8.6100    4.7446 H       1  UNL1        0.0000
     43 C           8.4222    4.6592    4.7037 C.3     1  UNL1        0.0000
     44 C          -3.8533    2.3467    8.4239 C.3     1  UNL1        0.0000
     45 C           3.9615   -2.5926    8.4766 C.3     1  UNL1        0.0000
     46 C           0.5135    9.4434    4.6213 C.3     1  UNL1        0.0000
     47 C           9.3443    4.0852    5.6930 C.ar    1  UNL1        0.0000
     48 C          -4.8119    2.9401    7.4529 C.2     1  UNL1        0.0000
     49 C           4.9172   -3.1727    7.5233 C.2     1  UNL1        0.0000
     50 C          -0.3927   10.0576    5.6269 C.ar    1  UNL1        0.0000
     51 C           9.1009    4.1498    7.1009 C.ar    1  UNL1        0.0000
     52 C          -4.5992    2.8294    6.0635 C.3     1  UNL1        0.0000
     53 C           6.0750   -3.8938    7.9691 C.2     1  UNL1        0.0000
     54 C          -1.5161   10.7925    5.1891 C.ar    1  UNL1        0.0000
     55 C          -0.1248    9.8942    6.9801 C.ar    1  UNL1        0.0000
     56 C           4.6573   -3.0476    6.1410 C.3     1  UNL1        0.0000
     57 C          10.4989    3.4267    5.2100 C.ar    1  UNL1        0.0000
     58 C          -5.9327    3.5932    7.9586 C.2     1  UNL1        0.0000
     59 C           2.8136    4.3074    6.6396 C.ar    1  UNL1        0.0000
     60 C           1.8020    2.5801    8.5908 C.ar    1  UNL1        0.0000
     61 C           6.1613    9.7262    4.6051 C.ar    1  UNL1        0.0000
     62 C          -1.7301   -2.9447    6.5282 C.3     1  UNL1        0.0000
     63 C           8.7150    1.5883    0.0113 C.3     2  UNL2        0.0000
     64 C           1.8390   13.1474    0.0887 C.2     1  UNL1        0.0000
     65 C           6.6841    0.1954   12.9898 C.ar    1  UNL1        0.0000
     66 C          -6.7198    1.2718   13.0467 C.2     1  UNL1        0.0000
     67 C           3.3505    5.2245    5.6056 C.3     1  UNL1        0.0000
     68 C          -1.1450   -2.0334    7.5402 C.3     1  UNL1        0.0000
     69 C           4.2160   -4.2016   13.1012 C.2     1  UNL1        0.0000
     70 C           1.7960   11.7116    0.0497 C.2     1  UNL1        0.0000
     71 C           5.4088   -0.4663   13.0430 C.3     1  UNL1        0.0000
     72 C          -5.3326    1.7347   13.0640 C.2     1  UNL1        0.0000
     73 C           1.4828    4.4426    7.0787 C.ar    1  UNL1        0.0000
     74 C           3.1252    2.4368    8.1546 C.ar    1  UNL1        0.0000
     75 C           5.4240   10.8276    5.0587 C.ar    1  UNL1        0.0000
     76 C          -8.0188   10.3196    6.0734 C.3     1  UNL1        0.0000
     77 C           8.7845    0.9195    1.2398 C.2     2  UNL2        0.0000
     78 C          -2.5081    6.6153   11.9630 C.ar    1  UNL1        0.0000
     79 C          -4.3605    7.7305    1.1102 C.2     1  UNL1        0.0000
     80 C          -7.3514    1.0220   11.8218 C.3     1  UNL1        0.0000
     81 C           7.4413    9.4696    5.1127 C.ar    1  UNL1        0.0000
     82 C          12.9911   -2.6946    6.0174 C.3     1  UNL1        0.0000
     83 C           3.6326    3.2980    7.1812 C.ar    1  UNL1        0.0000
     84 C           0.9806    3.5787    8.0529 C.ar    1  UNL1        0.0000
     85 C           7.3617    0.4896   11.7534 C.ar    1  UNL1        0.0000
     86 C          -3.0892    8.2550    1.1525 C.2     1  UNL1        0.0000
     87 C           4.4380   -6.3885   11.9106 C.3     1  UNL1        0.0000
     88 C           8.8554   -0.4796    1.3189 C.2     2  UNL2        0.0000
     89 N           8.9382   -1.0777    2.5559 N.pl3   2  UNL2        0.0000
     90 N           6.7825    0.2882   10.5174 N.pl3   1  UNL1        0.0000
     91 N           8.0012    4.7573    7.6391 N.pl3   1  UNL1        0.0000
     92 N           6.4187   -4.0420    9.2844 N.pl3   1  UNL1        0.0000
     93 O           7.2345    5.0226    5.0765 O.3     1  UNL1        0.0000
     94 O          -3.0539    1.4237    8.0200 O.3     1  UNL1        0.0000
     95 O           4.3452   -2.4564    9.6957 O.3     1  UNL1        0.0000
     96 O           0.4260    9.8719    3.4226 O.3     1  UNL1        0.0000
     97 O           1.3190    8.5131    5.0021 O.3     1  UNL1        0.0000
     98 O           2.7767   -2.2647    8.0781 O.3     1  UNL1        0.0000
     99 O           8.8242    4.7557    3.4898 O.3     1  UNL1        0.0000
    100 O          -3.9038    2.7798    9.6244 O.3     1  UNL1        0.0000
    101 O           6.1567    4.4091    2.5052 O.3     1  UNL1        0.0000
    102 O          -1.3679    1.9937   10.1096 O.3     1  UNL1        0.0000
    103 O           7.0178    6.7272    2.9532 O.3     1  UNL1        0.0000
    104 O          -3.0562    0.2085   10.6096 O.3     1  UNL1        0.0000
    105 O           1.6596   -2.8372   10.6743 O.3     1  UNL1        0.0000
    106 O           2.9694    9.1219    2.9093 O.3     1  UNL1        0.0000
    107 O           2.5316   -0.5433   10.2080 O.3     1  UNL1        0.0000
    108 O           1.3225    7.3070    2.3989 O.3     1  UNL1        0.0000
    109 O           4.5751    5.0877    5.2443 O.3     1  UNL1        0.0000
    110 O          -1.8362   -1.0225    7.9235 O.3     1  UNL1        0.0000
    111 O           4.0664   -3.6099   11.9620 O.2     1  UNL1        0.0000
    112 O           1.7435   11.0064    1.1444 O.2     1  UNL1        0.0000
    113 O           4.7709   -0.7955   11.9563 O.3     1  UNL1        0.0000
    114 O          -0.4275    9.0940    1.0941 O.3     1  UNL1        0.0000
    115 O           0.0289   -2.2879    7.9912 O.3     1  UNL1        0.0000
    116 O           2.5743    6.1196    5.1176 O.3     1  UNL1        0.0000
    117 O           9.1992    6.4527    1.0833 O.3     1  UNL1        0.0000
    118 O          -4.7481    1.9890   11.9440 O.2     1  UNL1        0.0000
    119 O           8.5001    3.6723    1.1133 O.3     1  UNL1        0.0000
    120 O          -2.5429    3.8491   12.0151 O.3     1  UNL1        0.0000
    121 O           4.2691    6.7356    3.0197 O.3     1  UNL1        0.0000
    122 O          -0.1470   -0.4361   10.0169 O.3     1  UNL1        0.0000
    123 O           6.7480    5.6001    0.0716 O.3     1  UNL1        0.0000
    124 O          -2.2383    1.3023   13.0448 O.3     1  UNL1        0.0000
    125 TI         -7.1809   -5.1237   24.3754 Ti      1  UNL1        0.0000
    126 TI          3.4902   -1.8559   14.9547 Ti      1  UNL1        0.0000
    127 TI         -2.9599   -8.9127   22.5273 Ti      1  UNL1        0.0000
    128 TI         -1.8009    0.3034   16.7587 Ti      1  UNL1        0.0000
    129 TI         -2.8679    1.9482   14.8622 Ti      1  UNL1        0.0000
    130 TI         -1.0531   -9.1035   24.4698 Ti      1  UNL1        0.0000
    131 TI         -6.1824   -6.8232   22.4763 Ti      1  UNL1        0.0000
    132 TI          1.5034   -1.6250   16.8136 Ti      1  UNL1        0.0000
    133 H          -0.5656   -5.5865   21.6937 H       1  UNL1        0.0000
    134 H         -11.3374    2.9036   19.5885 H       1  UNL1        0.0000
    135 H           0.1190    3.7715   17.7606 H       1  UNL1        0.0000
    136 H          -6.8162   -1.2112   24.1586 H       1  UNL1        0.0000
    137 H           4.4362   -5.7318   15.2654 H       1  UNL1        0.0000
    138 H         -11.1141   -6.0173   24.0139 H       1  UNL1        0.0000
    139 H           6.8016    0.2647   15.1394 H       1  UNL1        0.0000
    140 H           0.0602  -13.1011   24.0728 H       1  UNL1        0.0000
    141 H          -6.9016    1.2170   15.2060 H       1  UNL1        0.0000
    142 H           0.3444   -4.0350   19.9372 H       1  UNL1        0.0000
    143 H          -4.3578   -3.5688   21.5163 H       1  UNL1        0.0000
    144 H           8.1283   -9.0674   19.4887 H       1  UNL1        0.0000
    145 H          -6.6398   -6.9073   26.0944 H       1  UNL1        0.0000
    146 H           1.6147   -2.1617   13.2649 H       1  UNL1        0.0000
    147 H          -0.5511   -9.7458   18.9550 H       1  UNL1        0.0000
    148 H          -3.5669    2.0750   20.3897 H       1  UNL1        0.0000
    149 H         -10.3725   -3.5780   22.1477 H       1  UNL1        0.0000
    150 H           6.3287   -3.8458   17.2425 H       1  UNL1        0.0000
    151 H          -8.0411   -4.9405   18.7991 H       1  UNL1        0.0000
    152 H          -6.0165    3.6642   17.2352 H       1  UNL1        0.0000
    153 H          -2.5791    5.0618   15.7198 H       1  UNL1        0.0000
    154 H           4.3555   -7.7564   16.4660 H       1  UNL1        0.0000
    155 H           0.2941    0.0582   15.4080 H       1  UNL1        0.0000
    156 H          -4.0970   -7.1046   23.8294 H       1  UNL1        0.0000
    157 H           3.1026   -7.0204   22.8387 H       1  UNL1        0.0000
    158 H           1.6430   -7.5417   23.5936 H       1  UNL1        0.0000
    159 H           3.5159   -2.5682   21.7428 H       1  UNL1        0.0000
    160 H           2.9250   -2.2277   20.1279 H       1  UNL1        0.0000
    161 H           2.7855  -11.9890   22.6444 H       1  UNL1        0.0000
    162 H           1.4714  -10.9342   23.1105 H       1  UNL1        0.0000
    163 H          -2.9011   -5.3276   22.4663 H       1  UNL1        0.0000
    164 H          -3.4488   -2.0122   19.7588 H       1  UNL1        0.0000
    165 H           1.4284    1.8302   16.9556 H       1  UNL1        0.0000
    166 H           3.6865    1.3708   17.8549 H       1  UNL1        0.0000
    167 C           4.1097   -2.5800   17.8139 C.3     1  UNL1        0.0000
    168 C          -8.1659   -4.8925   21.5341 C.3     1  UNL1        0.0000
    169 C          -0.3510   -9.8318   21.5868 C.3     1  UNL1        0.0000
    170 C          -3.7990    2.2042   17.7315 C.3     1  UNL1        0.0000
    171 C           5.0317   -3.1540   18.8033 C.ar    1  UNL1        0.0000
    172 C          -9.1244   -4.2991   20.5632 C.2     1  UNL1        0.0000
    173 C           0.6047  -10.4119   20.6336 C.2     1  UNL1        0.0000
    174 C          -4.7052    2.8184   18.7372 C.ar    1  UNL1        0.0000
    175 C           4.7884   -3.0894   20.2112 C.ar    1  UNL1        0.0000
    176 C          -8.9117   -4.4098   19.1738 C.3     1  UNL1        0.0000
    177 C           1.7624  -11.1330   21.0793 C.2     1  UNL1        0.0000
    178 C          -5.8286    3.5533   18.2994 C.ar    1  UNL1        0.0000
    179 C          -4.4373    2.6550   20.0904 C.ar    1  UNL1        0.0000
    180 C           0.3448  -10.2868   19.2512 C.3     1  UNL1        0.0000
    181 C           6.1864   -3.8125   18.3203 C.ar    1  UNL1        0.0000
    182 C         -10.2452   -3.6460   21.0689 C.2     1  UNL1        0.0000
    183 C          -1.4989   -2.9318   19.7498 C.ar    1  UNL1        0.0000
    184 C          -2.5105   -4.6591   21.7011 C.ar    1  UNL1        0.0000
    185 C           1.8488    2.4870   17.7154 C.ar    1  UNL1        0.0000
    186 C          -6.0426  -10.1839   19.6385 C.3     1  UNL1        0.0000
    187 C           4.4025   -5.6509   13.1216 C.2     1  UNL1        0.0000
    188 C          -2.4735    5.9082   13.1989 C.ar    1  UNL1        0.0000
    189 C           2.3715   -7.0438   26.1001 C.ar    1  UNL1        0.0000
    190 C         -11.0323   -5.9674   26.1570 C.2     1  UNL1        0.0000
    191 C          -0.9621   -2.0147   18.7159 C.3     1  UNL1        0.0000
    192 C          -5.4575   -9.2726   20.6505 C.3     1  UNL1        0.0000
    193 C          -0.0966  -11.4408   26.2114 C.2     1  UNL1        0.0000
    194 C          -2.5165    4.4724   13.1600 C.3     1  UNL1        0.0000
    195 C           1.0963   -7.7055   26.1533 C.3     1  UNL1        0.0000
    196 C          -9.6451   -5.5045   26.1743 C.2     1  UNL1        0.0000
    197 C          -2.8297   -2.7966   20.1890 C.ar    1  UNL1        0.0000
    198 C          -1.1874   -4.8024   21.2649 C.ar    1  UNL1        0.0000
    199 C           1.1114    3.5884   18.1689 C.ar    1  UNL1        0.0000
    200 C         -12.3314    3.0804   19.1837 C.3     1  UNL1        0.0000
    201 C           4.4720   -6.3197   14.3501 C.2     1  UNL1        0.0000
    202 C          -6.8207   -0.6239   25.0733 C.ar    1  UNL1        0.0000
    203 C          -8.6731    0.4913   14.2205 C.2     1  UNL1        0.0000
    204 C         -11.6639   -6.2172   24.9321 C.3     1  UNL1        0.0000
    205 C           3.1287    2.2304   18.2230 C.ar    1  UNL1        0.0000
    206 C           8.6786   -9.9338   19.1277 C.3     1  UNL1        0.0000
    207 C          -0.6799   -3.9412   20.2915 C.ar    1  UNL1        0.0000
    208 C          -3.3320   -3.6605   21.1632 C.ar    1  UNL1        0.0000
    209 C           3.0492   -6.7496   24.8637 C.ar    1  UNL1        0.0000
    210 C          -7.4017    1.0158   14.2627 C.2     1  UNL1        0.0000
    211 C           0.1254  -13.6277   25.0209 C.3     1  UNL1        0.0000
    212 C           4.5429   -7.7188   14.4292 C.2     1  UNL1        0.0000
    213 N           4.6257   -8.3169   15.6662 N.pl3   1  UNL1        0.0000
    214 N           2.4699   -6.9510   23.6277 N.pl3   1  UNL1        0.0000
    215 N           3.6886   -2.4819   20.7494 N.pl3   1  UNL1        0.0000
    216 N           2.1061  -11.2812   22.3946 N.pl3   1  UNL1        0.0000
    217 O           2.9220   -2.2166   18.1868 O.3     1  UNL1        0.0000
    218 O          -7.3665   -5.8155   21.1303 O.3     1  UNL1        0.0000
    219 O           0.0327   -9.6956   22.8060 O.3     1  UNL1        0.0000
    220 O          -3.8865    2.6327   16.5329 O.3     1  UNL1        0.0000
    221 O          -2.9936    1.2739   18.1124 O.3     1  UNL1        0.0000
    222 O          -1.5358   -9.5039   21.1883 O.3     1  UNL1        0.0000
    223 O           4.5117   -2.4835   16.6000 O.3     1  UNL1        0.0000
    224 O          -8.2163   -4.4594   22.7347 O.3     1  UNL1        0.0000
    225 O           1.8441   -2.8301   15.6155 O.3     1  UNL1        0.0000
    226 O          -5.6805   -5.2455   23.2199 O.3     1  UNL1        0.0000
    227 O           2.7052   -0.5120   16.0635 O.3     1  UNL1        0.0000
    228 O          -7.3688   -7.0307   23.7199 O.3     1  UNL1        0.0000
    229 O          -2.6529  -10.0764   23.7846 O.3     1  UNL1        0.0000
    230 O          -1.3431    1.8827   16.0195 O.3     1  UNL1        0.0000
    231 O          -1.7809   -7.7825   23.3183 O.3     1  UNL1        0.0000
    232 O          -2.9900    0.0678   15.5092 O.3     1  UNL1        0.0000
    233 O           0.2626   -2.1515   18.3546 O.3     1  UNL1        0.0000
    234 O          -6.1487   -8.2617   21.0338 O.3     1  UNL1        0.0000
    235 O          -0.2462  -10.8492   25.0723 O.2     1  UNL1        0.0000
    236 O          -2.5690    3.7672   14.2546 O.3     1  UNL1        0.0000
    237 O           0.4584   -8.0347   25.0666 O.3     1  UNL1        0.0000
    238 O          -4.7400    1.8548   14.2044 O.2     1  UNL1        0.0000
    239 O          -4.2836   -9.5271   21.1014 O.3     1  UNL1        0.0000
    240 O          -1.7383   -1.1196   18.2279 O.3     1  UNL1        0.0000
    241 O           4.8866   -0.7865   14.1936 O.3     1  UNL1        0.0000
    242 O          -9.0607   -5.2502   25.0543 O.2     1  UNL1        0.0000
    243 O           4.1876   -3.5669   14.2236 O.2     1  UNL1        0.0000
    244 O          -6.8555   -3.3901   25.1254 O.3     1  UNL1        0.0000
    245 O          -0.0434   -0.5036   16.1299 O.3     1  UNL1        0.0000
    246 O          -4.4596   -7.6753   23.1272 O.3     1  UNL1        0.0000
    247 O           2.4354   -1.6391   13.1819 O.3     1  UNL1        0.0000
    248 O          -6.5508   -5.9369   26.1551 O.3     1  UNL1        0.0000
    249 TI        -11.4934  -12.3629   37.4857 Ti      1  UNL1        0.0000
    250 TI         -0.8224   -9.0951   28.0650 Ti      1  UNL1        0.0000
    251 TI         -7.2724  -16.1519   35.6375 Ti      1  UNL1        0.0000
    252 TI         -6.1134   -6.9358   29.8690 Ti      1  UNL1        0.0000
    253 TI         -7.1804   -5.2910   27.9725 Ti      1  UNL1        0.0000
    254 TI         -5.3656  -16.3427   37.5800 Ti      1  UNL1        0.0000
    255 TI        -10.4950  -14.0624   35.5866 Ti      1  UNL1        0.0000
    256 TI         -2.8091   -8.8642   29.9238 Ti      1  UNL1        0.0000
    257 H          -4.8782  -12.8257   34.8039 H       1  UNL1        0.0000
    258 H         -15.6499   -4.3356   32.6988 H       1  UNL1        0.0000
    259 H          -4.1935   -3.4677   30.8709 H       1  UNL1        0.0000
    260 H         -11.1287   -8.4504   37.2689 H       2  UNL2        0.0000
    261 H           0.1237  -12.9710   28.3757 H       1  UNL1        0.0000
    262 H         -15.4267  -13.2565   37.1242 H       1  UNL1        0.0000
    263 H           2.4890   -6.9745   28.2496 H       1  UNL1        0.0000
    264 H          -4.2524  -20.3403   37.1831 H       3  UNL3        0.0000
    265 H         -11.2141   -6.0222   28.3163 H       1  UNL1        0.0000
    266 H          -3.9682  -11.2742   33.0474 H       1  UNL1        0.0000
    267 H          -8.6704  -10.8080   34.6266 H       1  UNL1        0.0000
    268 H           3.8158  -16.3066   32.5990 H       1  UNL1        0.0000
    269 H         -10.9523  -14.1465   39.2047 H       1  UNL1        0.0000
    270 H          -2.6978   -9.4009   26.3751 H       1  UNL1        0.0000
    271 H          -4.8637  -16.9850   32.0653 H       1  UNL1        0.0000
    272 H          -7.8795   -5.1642   33.5000 H       1  UNL1        0.0000
    273 H         -14.6850  -10.8172   35.2580 H       1  UNL1        0.0000
    274 H           2.0161  -11.0850   30.3527 H       1  UNL1        0.0000
    275 H         -12.3536  -12.1797   31.9094 H       1  UNL1        0.0000
    276 H         -10.3290   -3.5750   30.3455 H       1  UNL1        0.0000
    277 H          -6.8917   -2.1774   28.8301 H       1  UNL1        0.0000
    278 H           0.0429  -14.9956   29.5763 H       1  UNL1        0.0000
    279 H          -4.0184   -7.1810   28.5183 H       1  UNL1        0.0000
    280 H          -8.4096  -14.3438   36.9397 H       1  UNL1        0.0000
    281 H          -1.2099  -14.2596   35.9489 H       1  UNL1        0.0000
    282 H          -2.6696  -14.7809   36.7038 H       1  UNL1        0.0000
    283 H          -0.7966   -9.8074   34.8530 H       1  UNL1        0.0000
    284 H          -1.3875   -9.4669   33.2382 H       1  UNL1        0.0000
    285 H          -1.5270  -19.2282   35.7547 H       1  UNL1        0.0000
    286 H          -2.8411  -18.1734   36.2207 H       1  UNL1        0.0000
    287 H          -7.2136  -12.5668   35.5766 H       1  UNL1        0.0000
    288 H          -7.7613   -9.2514   32.8691 H       1  UNL1        0.0000
    289 H          -2.8841   -5.4090   30.0659 H       1  UNL1        0.0000
    290 H          -0.6261   -5.8684   30.9651 H       1  UNL1        0.0000
    291 C          -0.2029   -9.8192   30.9242 C.3     1  UNL1        0.0000
    292 C         -12.4784  -12.1317   34.6444 C.3     1  UNL1        0.0000
    293 C          -4.6636  -17.0710   34.6971 C.3     1  UNL1        0.0000
    294 C          -8.1115   -5.0350   30.8418 C.3     1  UNL1        0.0000
    295 C           0.7192  -10.3932   31.9136 C.ar    1  UNL1        0.0000
    296 C         -13.4369  -11.5383   33.6734 C.2     1  UNL1        0.0000
    297 C          -3.7078  -17.6511   33.7439 C.2     1  UNL1        0.0000
    298 C          -9.0177   -4.4208   31.8474 C.ar    1  UNL1        0.0000
    299 C           0.4759  -10.3286   33.3215 C.ar    1  UNL1        0.0000
    300 C         -13.2243  -11.6490   32.2841 C.3     1  UNL1        0.0000
    301 C          -2.5501  -18.3722   34.1896 C.2     1  UNL1        0.0000
    302 C         -10.1412   -3.6859   31.4097 C.ar    1  UNL1        0.0000
    303 C          -8.7499   -4.5842   33.2006 C.ar    1  UNL1        0.0000
    304 C          -3.9677  -17.5261   32.3615 C.3     1  UNL1        0.0000
    305 C           1.8738  -11.0517   31.4306 C.ar    1  UNL1        0.0000
    306 C         -14.5577  -10.8852   34.1792 C.2     1  UNL1        0.0000
    307 C          -5.8115  -10.1710   32.8601 C.ar    1  UNL1        0.0000
    308 C          -6.8230  -11.8983   34.8114 C.ar    1  UNL1        0.0000
    309 C          -2.4637   -4.7522   30.8257 C.ar    1  UNL1        0.0000
    310 C         -10.3551  -17.4231   32.7488 C.3     1  UNL1        0.0000
    311 C           0.0900  -12.8901   26.2319 C.2     1  UNL1        0.0000
    312 C          -6.7860   -1.3310   26.3092 C.ar    1  UNL1        0.0000
    313 C          -1.9410  -14.2830   39.2104 C.2     1  UNL1        0.0000
    314 C         -15.3448  -13.2066   39.2673 C.2     1  UNL1        0.0000
    315 C          -5.2746   -9.2539   31.8261 C.3     1  UNL1        0.0000
    316 C          -9.7701  -16.5118   33.7608 C.3     1  UNL1        0.0000
    317 C          -4.4091  -18.6800   39.3217 C.3     1  UNL1        0.0000
    318 C          -6.8291   -2.7668   26.2702 C.3     1  UNL1        0.0000
    319 C          -3.2163  -14.9447   39.2636 C.2     1  UNL1        0.0000
    320 C         -13.9577  -12.7437   39.2845 C.2     1  UNL1        0.0000
    321 C          -7.1422  -10.0358   33.2993 C.ar    1  UNL1        0.0000
    322 C          -5.4999  -12.0416   34.3751 C.ar    1  UNL1        0.0000
    323 C          -3.2011   -3.6508   31.2792 C.ar    1  UNL1        0.0000
    324 C         -16.6439   -4.1588   32.2939 C.3     1  UNL1        0.0000
    325 C           0.1595  -13.5589   27.4604 C.2     1  UNL1        0.0000
    326 C         -11.1332   -7.8631   38.1835 C.2     2  UNL2        0.0000
    327 C         -12.9856   -6.7479   27.3308 C.2     1  UNL1        0.0000
    328 C         -15.9764  -13.4564   38.0424 C.3     1  UNL1        0.0000
    329 C          -1.1838   -5.0088   31.3332 C.ar    1  UNL1        0.0000
    330 C           4.3660  -17.1730   32.2379 C.3     1  UNL1        0.0000
    331 C          -4.9925  -11.1804   33.4017 C.ar    1  UNL1        0.0000
    332 C          -7.6445  -10.8997   34.2734 C.ar    1  UNL1        0.0000
    333 C          -1.2634  -13.9888   37.9739 C.2     1  UNL1        0.0000
    334 C         -11.7142   -6.2234   27.3730 C.2     1  UNL1        0.0000
    335 C          -4.1871  -20.8669   38.1312 C.3     3  UNL3        0.0000
    336 C           0.2304  -14.9580   27.5394 C.2     1  UNL1        0.0000
    337 N           0.3132  -15.5561   28.7764 N.pl3   1  UNL1        0.0000
    338 N          -1.8426  -14.1902   36.7380 N.pl3   1  UNL1        0.0000
    339 N          -0.6239   -9.7211   33.8596 N.pl3   1  UNL1        0.0000
    340 N          -2.2064  -18.5204   35.5049 N.pl3   1  UNL1        0.0000
    341 O          -1.3905   -9.4558   31.2971 O.3     1  UNL1        0.0000
    342 O         -11.6790  -13.0547   34.2406 O.3     1  UNL1        0.0000
    343 O          -4.2798  -16.9348   35.9163 O.3     1  UNL1        0.0000
    344 O          -8.1990   -4.6065   29.6432 O.3     1  UNL1        0.0000
    345 O          -7.3061   -5.9653   31.2227 O.3     1  UNL1        0.0000
    346 O          -5.8483  -16.7431   34.2986 O.3     1  UNL1        0.0000
    347 O           0.1992   -9.7227   29.7103 O.3     1  UNL1        0.0000
    348 O         -12.5289  -11.6986   35.8450 O.3     1  UNL1        0.0000
    349 O          -2.4684  -10.0693   28.7258 O.3     1  UNL1        0.0000
    350 O          -9.9930  -12.4847   36.3302 O.3     1  UNL1        0.0000
    351 O          -1.6073   -7.7512   29.1737 O.3     1  UNL1        0.0000
    352 O         -11.6813  -14.2699   36.8302 O.3     1  UNL1        0.0000
    353 O          -6.9654  -17.3156   36.8949 O.3     1  UNL1        0.0000
    354 O          -5.6557   -5.3565   29.1298 O.3     1  UNL1        0.0000
    355 O          -6.0934  -15.0217   36.4286 O.3     1  UNL1        0.0000
    356 O          -7.3026   -7.1714   28.6194 O.3     1  UNL1        0.0000
    357 O          -4.0500   -9.3907   31.4649 O.3     1  UNL1        0.0000
    358 O         -10.4612  -15.5009   34.1441 O.3     1  UNL1        0.0000
    359 O          -4.5587  -18.0884   38.1826 O.3     1  UNL1        0.0000
    360 O          -6.8816   -3.4720   27.3649 O.3     1  UNL1        0.0000
    361 O          -3.8541  -15.2739   38.1769 O.2     1  UNL1        0.0000
    362 O          -9.0526   -5.3844   27.3147 O.2     1  UNL1        0.0000
    363 O          -8.5962  -16.7663   34.2117 O.3     1  UNL1        0.0000
    364 O          -6.0508   -8.3588   31.3382 O.3     1  UNL1        0.0000
    365 O           0.5741   -8.0257   27.3039 O.3     1  UNL1        0.0000
    366 O         -13.3732  -12.4894   38.1645 O.2     1  UNL1        0.0000
    367 O          -0.1249  -10.8061   27.3338 O.2     1  UNL1        0.0000
    368 O         -11.1680  -10.6293   38.2357 O.3     1  UNL1        0.0000
    369 O          -4.3559   -7.7428   29.2402 O.3     1  UNL1        0.0000
    370 O          -8.7721  -14.9145   36.2375 O.3     1  UNL1        0.0000
    371 O          -1.8771   -8.8783   26.2921 O.3     1  UNL1        0.0000
    372 O         -10.8634  -13.1761   39.2653 O.3     1  UNL1        0.0000
    373 TI         -9.8903   16.4923   11.2652 Ti      1  UNL1        0.0000
    374 TI          0.7808   19.7601    1.8444 Ti      1  UNL1        0.0000
    375 TI         -5.6693   12.7033    9.4170 Ti      1  UNL1        0.0000
    376 TI         -4.5103   21.9194    3.6484 Ti      1  UNL1        0.0000
    377 TI         -5.5773   23.5642    1.7520 Ti      1  UNL1        0.0000
    378 TI         -3.7625   12.5125   11.3595 Ti      1  UNL1        0.0000
    379 TI         -8.8918   14.7928    9.3660 Ti      1  UNL1        0.0000
    380 TI         -1.2060   19.9910    3.7033 Ti      1  UNL1        0.0000
    381 H          -3.2750   16.0295    8.5834 H       1  UNL1        0.0000
    382 H         -14.0468   24.5196    6.4782 H       1  UNL1        0.0000
    383 H          -2.5904   25.3875    4.6503 H       1  UNL1        0.0000
    384 H          -9.5256   20.4048   11.0484 H       1  UNL1        0.0000
    385 H           1.7268   15.8842    2.1552 H       1  UNL1        0.0000
    386 H         -13.8235   15.5988   10.9036 H       1  UNL1        0.0000
    387 H           4.0922   21.8807    2.0291 H      14  UNL14       0.0000
    388 H          -2.6492    8.5149   10.9625 H       1  UNL1        0.0000
    389 H          -9.6110   22.8330    2.0957 H       4  UNL4        0.0000
    390 H          -2.3650   17.5810    6.8269 H       1  UNL1        0.0000
    391 H          -7.0672   18.0472    8.4060 H       1  UNL1        0.0000
    392 H           5.4189   12.5486    6.3785 H       1  UNL1        0.0000
    393 H          -9.3492   14.7087   12.9842 H       1  UNL1        0.0000
    394 H          -1.0947   19.4543    0.1546 H       1  UNL1        0.0000
    395 H          -3.2605   11.8702    5.8447 H       1  UNL1        0.0000
    396 H          -6.2764   23.6910    7.2795 H       1  UNL1        0.0000
    397 H         -13.0819   18.0380    9.0374 H       1  UNL1        0.0000
    398 H           3.6193   17.7702    4.1322 H       1  UNL1        0.0000
    399 H         -10.7505   16.6756    5.6889 H       1  UNL1        0.0000
    400 H          -8.7259   25.2802    4.1249 H       1  UNL1        0.0000
    401 H          -5.2885   26.6778    2.6096 H       1  UNL1        0.0000
    402 H           1.6461   13.8596    3.3557 H       1  UNL1        0.0000
    403 H          -2.4153   21.6742    2.2978 H       1  UNL1        0.0000
    404 H          -6.8064   14.5114   10.7192 H       1  UNL1        0.0000
    405 H           0.3932   14.5956    9.7284 H       1  UNL1        0.0000
    406 H          -1.0665   14.0743   10.4833 H       1  UNL1        0.0000
    407 H           0.8065   19.0478    8.6325 H       1  UNL1        0.0000
    408 H           0.2156   19.3883    7.0176 H       1  UNL1        0.0000
    409 H           0.0761    9.6270    9.5342 H       1  UNL1        0.0000
    410 H          -1.2380   10.6818   10.0002 H       1  UNL1        0.0000
    411 H          -5.6105   16.2884    9.3560 H       1  UNL1        0.0000
    412 H          -6.1582   19.6038    6.6485 H       1  UNL1        0.0000
    413 H          -1.2810   23.4462    3.8453 H       1  UNL1        0.0000
    414 H           0.9771   22.9868    4.7446 H       1  UNL1        0.0000
    415 C           1.4003   19.0360    4.7037 C.3     1  UNL1        0.0000
    416 C         -10.8753   16.7235    8.4239 C.3     1  UNL1        0.0000
    417 C          -3.0604   11.7842    8.4766 C.3     1  UNL1        0.0000
    418 C          -6.5084   23.8202    4.6213 C.3     1  UNL1        0.0000
    419 C           2.3223   18.4620    5.6930 C.ar    1  UNL1        0.0000
    420 C         -11.8338   17.3169    7.4529 C.2     1  UNL1        0.0000
    421 C          -2.1047   11.2041    7.5233 C.ar    1  UNL1        0.0000
    422 C          -7.4146   24.4344    5.6269 C.ar    1  UNL1        0.0000
    423 C           2.0790   18.5266    7.1009 C.ar    1  UNL1        0.0000
    424 C         -11.6211   17.2062    6.0635 C.3     1  UNL1        0.0000
    425 C          -0.9470   10.4830    7.9691 C.ar    1  UNL1        0.0000
    426 C          -8.5380   25.1693    5.1891 C.ar    1  UNL1        0.0000
    427 C          -7.1467   24.2710    6.9801 C.ar    1  UNL1        0.0000
    428 C          -2.3646   11.3292    6.1410 C.ar    1  UNL1        0.0000
    429 C           3.4770   17.8035    5.2100 C.ar    1  UNL1        0.0000
    430 C         -12.9546   17.9700    7.9586 C.2     1  UNL1        0.0000
    431 C          -4.2083   18.6842    6.6396 C.ar    1  UNL1        0.0000
    432 C          -5.2199   16.9569    8.5908 C.ar    1  UNL1        0.0000
    433 C          -0.8606   24.1031    4.6051 C.ar    1  UNL1        0.0000
    434 C          -8.7520   11.4321    6.5282 C.2     1  UNL1        0.0000
    435 C           1.6931   15.9651    0.0113 C.3     1  UNL1        0.0000
    436 C          -5.1829   27.5243    0.0887 C.2     1  UNL1        0.0000
    437 C          -0.3379   14.5722   12.9898 C.ar    1  UNL1        0.0000
    438 C         -13.7417   15.6486   13.0467 C.2     1  UNL1        0.0000
    439 C          -3.6715   19.6013    5.6056 C.3     1  UNL1        0.0000
    440 C          -8.1669   12.3434    7.5402 C.2     1  UNL1        0.0000
    441 C          -2.8060   10.1752   13.1012 C.3     1  UNL1        0.0000
    442 C          -5.2259   26.0884    0.0497 C.2     1  UNL1        0.0000
    443 C          -1.6132   13.9105   13.0430 C.3     1  UNL1        0.0000
    444 C         -12.3545   16.1115   13.0640 C.2     1  UNL1        0.0000
    445 C          -5.5391   18.8194    7.0787 C.ar    1  UNL1        0.0000
    446 C          -3.8968   16.8136    8.1546 C.ar    1  UNL1        0.0000
    447 C          -1.5980   25.2044    5.0587 C.ar    1  UNL1        0.0000
    448 C         -15.0408   24.6964    6.0734 C.3     1  UNL1        0.0000
    449 C           1.7626   15.2963    1.2398 C.2     1  UNL1        0.0000
    450 C          -9.5301   20.9921   11.9630 C.ar    1  UNL1        0.0000
    451 C         -11.3825   22.1073    1.1102 C.2     4  UNL4        0.0000
    452 C         -14.3733   15.3988   11.8218 C.3     1  UNL1        0.0000
    453 C           0.4193   23.8465    5.1127 C.ar    1  UNL1        0.0000
    454 C           5.9692   11.6822    6.0174 C.ar    1  UNL1        0.0000
    455 C          -3.3893   17.6748    7.1812 C.ar    1  UNL1        0.0000
    456 C          -6.0414   17.9555    8.0529 C.ar    1  UNL1        0.0000
    457 C           0.3398   14.8664   11.7534 C.ar    1  UNL1        0.0000
    458 C         -10.1111   22.6318    1.1525 C.2     4  UNL4        0.0000
    459 C          -2.5840    7.9883   11.9106 C.ar    1  UNL1        0.0000
    460 C           1.8335   13.8972    1.3189 C.2     1  UNL1        0.0000
    461 N           1.9163   13.2992    2.5559 N.pl3   1  UNL1        0.0000
    462 N          -0.2395   14.6650   10.5174 N.pl3   1  UNL1        0.0000
    463 N           0.9792   19.1342    7.6391 N.pl3   1  UNL1        0.0000
    464 N          -0.6033   10.3348    9.2844 N.pl3   1  UNL1        0.0000
    465 O           0.2126   19.3994    5.0765 O.3     1  UNL1        0.0000
    466 O         -10.0759   15.8005    8.0200 O.3     1  UNL1        0.0000
    467 O          -2.6767   11.9204    9.6957 O.3     1  UNL1        0.0000
    468 O          -6.5959   24.2487    3.4226 O.3     1  UNL1        0.0000
    469 O          -5.7030   22.8899    5.0021 O.3     1  UNL1        0.0000
    470 O          -4.2452   12.1121    8.0781 O.3     1  UNL1        0.0000
    471 O           1.8023   19.1325    3.4898 O.3     1  UNL1        0.0000
    472 O         -10.9257   17.1566    9.6244 O.3     1  UNL1        0.0000
    473 O          -0.8653   18.7859    2.5052 O.3     1  UNL1        0.0000
    474 O          -8.3899   16.3706   10.1096 O.3     1  UNL1        0.0000
    475 O          -0.0042   21.1040    2.9532 O.3     1  UNL1        0.0000
    476 O         -10.0782   14.5853   10.6096 O.3     1  UNL1        0.0000
    477 O          -5.3623   11.5396   10.6743 O.3     1  UNL1        0.0000
    478 O          -4.0525   23.4987    2.9093 O.3     1  UNL1        0.0000
    479 O          -4.4903   13.8335   10.2080 O.3     1  UNL1        0.0000
    480 O          -5.6994   21.6838    2.3989 O.3     1  UNL1        0.0000
    481 O          -2.4468   19.4645    5.2443 O.3     1  UNL1        0.0000
    482 O          -8.8581   13.3543    7.9235 O.2     1  UNL1        0.0000
    483 O          -2.9556   10.7669   11.9620 O.3     1  UNL1        0.0000
    484 O          -5.2784   25.3832    1.1444 O.2     1  UNL1        0.0000
    485 O          -2.2510   13.5813   11.9563 O.3     1  UNL1        0.0000
    486 O          -7.4494   23.4708    1.0941 O.3     1  UNL1        0.0000
    487 O          -6.9930   12.0889    7.9912 O.2     1  UNL1        0.0000
    488 O          -4.4477   20.4964    5.1176 O.3     1  UNL1        0.0000
    489 O           2.1772   20.8295    1.0833 O.3     1  UNL1        0.0000
    490 O         -11.7701   16.3658   11.9440 O.2     1  UNL1        0.0000
    491 O           1.4782   18.0491    1.1133 O.3     1  UNL1        0.0000
    492 O          -9.5649   18.2259   12.0151 O.3     1  UNL1        0.0000
    493 O          -2.7528   21.1124    3.0197 O.3     1  UNL1        0.0000
    494 O          -7.1690   13.9407   10.0169 O.3     1  UNL1        0.0000
    495 O          -0.2740   19.9769    0.0716 O.3     1  UNL1        0.0000
    496 O          -9.2602   15.6791   13.0448 O.3     1  UNL1        0.0000
    497 TI        -14.2028    9.2531   24.3754 Ti      1  UNL1        0.0000
    498 TI         -3.5318   12.5209   14.9547 Ti      1  UNL1        0.0000
    499 TI         -9.9818    5.4641   22.5273 Ti      1  UNL1        0.0000
    500 TI         -8.8228   14.6802   16.7587 Ti      1  UNL1        0.0000
    501 TI         -9.8898   16.3250   14.8622 Ti      1  UNL1        0.0000
    502 TI         -8.0750    5.2733   24.4698 Ti      1  UNL1        0.0000
    503 TI        -13.2044    7.5536   22.4763 Ti      1  UNL1        0.0000
    504 TI         -5.5185   12.7518   16.8136 Ti      1  UNL1        0.0000
    505 H          -7.5876    8.7903   21.6937 H       1  UNL1        0.0000
    506 H         -18.3593   17.2804   19.5885 H       1  UNL1        0.0000
    507 H          -6.9030   18.1483   17.7606 H       1  UNL1        0.0000
    508 H         -13.8381   13.1656   24.1586 H       1  UNL1        0.0000
    509 H          -2.5857    8.6450   15.2654 H       1  UNL1        0.0000
    510 H         -18.1361    8.3596   24.0139 H       1  UNL1        0.0000
    511 H          -0.2204   14.6415   15.1394 H       1  UNL1        0.0000
    512 H          -6.9618    1.2757   24.0728 H       1  UNL1        0.0000
    513 H         -13.9235   15.5938   15.2060 H       1  UNL1        0.0000
    514 H          -6.6776   10.3418   19.9372 H       1  UNL1        0.0000
    515 H         -11.3798   10.8080   21.5163 H       1  UNL1        0.0000
    516 H           1.1064    5.3094   19.4887 H       1  UNL1        0.0000
    517 H         -13.6617    7.4695   26.0944 H       1  UNL1        0.0000
    518 H          -5.4072   12.2151   13.2649 H       1  UNL1        0.0000
    519 H          -7.5731    4.6310   18.9550 H       1  UNL1        0.0000
    520 H         -10.5889   16.4518   20.3897 H       1  UNL1        0.0000
    521 H         -17.3944   10.7988   22.1477 H       1  UNL1        0.0000
    522 H          -0.6933   10.5310   17.2425 H       1  UNL1        0.0000
    523 H         -15.0630    9.4364   18.7991 H       1  UNL1        0.0000
    524 H         -13.0385   18.0410   17.2352 H       1  UNL1        0.0000
    525 H          -9.6011   19.4386   15.7198 H       1  UNL1        0.0000
    526 H          -2.6665    6.6204   16.4660 H       1  UNL1        0.0000
    527 H          -6.7279   14.4350   15.4080 H       1  UNL1        0.0000
    528 H         -11.1190    7.2722   23.8294 H       1  UNL1        0.0000
    529 H          -3.9193    7.3564   22.8387 H       1  UNL1        0.0000
    530 H          -5.3790    6.8351   23.5936 H       1  UNL1        0.0000
    531 H          -3.5060   11.8086   21.7428 H       1  UNL1        0.0000
    532 H          -4.0969   12.1491   20.1279 H       1  UNL1        0.0000
    533 H          -4.2364    2.3878   22.6444 H       1  UNL1        0.0000
    534 H          -5.5505    3.4426   23.1105 H       1  UNL1        0.0000
    535 H          -9.9230    9.0492   22.4663 H       1  UNL1        0.0000
    536 H         -10.4707   12.3646   19.7588 H       1  UNL1        0.0000
    537 H          -5.5936   16.2070   16.9556 H       1  UNL1        0.0000
    538 H          -3.3355   15.7476   17.8549 H       1  UNL1        0.0000
    539 C          -2.9123   11.7968   17.8139 C.3     1  UNL1        0.0000
    540 C         -15.1878    9.4843   21.5341 C.3     1  UNL1        0.0000
    541 C          -7.3730    4.5450   21.5868 C.3     1  UNL1        0.0000
    542 C         -10.8209   16.5810   17.7315 C.3     1  UNL1        0.0000
    543 C          -1.9902   11.2228   18.8033 C.ar    1  UNL1        0.0000
    544 C         -16.1463   10.0777   20.5632 C.2     1  UNL1        0.0000
    545 C          -6.4172    3.9649   20.6336 C.ar    1  UNL1        0.0000
    546 C         -11.7271   17.1952   18.7372 C.ar    1  UNL1        0.0000
    547 C          -2.2335   11.2874   20.2112 C.ar    1  UNL1        0.0000
    548 C         -15.9337    9.9670   19.1738 C.3     1  UNL1        0.0000
    549 C          -5.2595    3.2438   21.0793 C.ar    1  UNL1        0.0000
    550 C         -12.8506   17.9301   18.2994 C.ar    1  UNL1        0.0000
    551 C         -11.4593   17.0318   20.0904 C.ar    1  UNL1        0.0000
    552 C          -6.6771    4.0900   19.2512 C.ar    1  UNL1        0.0000
    553 C          -0.8356   10.5643   18.3203 C.ar    1  UNL1        0.0000
    554 C         -17.2671   10.7308   21.0689 C.2     1  UNL1        0.0000
    555 C          -8.5209   11.4450   19.7498 C.ar    1  UNL1        0.0000
    556 C          -9.5324    9.7177   21.7011 C.ar    1  UNL1        0.0000
    557 C          -5.1731   16.8639   17.7154 C.ar    1  UNL1        0.0000
    558 C         -13.0645    4.1929   19.6385 C.2     1  UNL1        0.0000
    559 C          -2.6194    8.7259   13.1216 C.ar    1  UNL1        0.0000
    560 C          -9.4955   20.2851   13.1989 C.ar    1  UNL1        0.0000
    561 C          -4.6504    7.3330   26.1001 C.ar    1  UNL1        0.0000
    562 C         -18.0542    8.4094   26.1570 C.2     1  UNL1        0.0000
    563 C          -7.9840   12.3621   18.7159 C.3     1  UNL1        0.0000
    564 C         -12.4795    5.1042   20.6505 C.2     1  UNL1        0.0000
    565 C          -7.1185    2.9360   26.2114 C.3     1  UNL1        0.0000
    566 C          -9.5385   18.8492   13.1600 C.3     1  UNL1        0.0000
    567 C          -5.9257    6.6713   26.1533 C.3     1  UNL1        0.0000
    568 C         -16.6671    8.8723   26.1743 C.2     1  UNL1        0.0000
    569 C          -9.8516   11.5802   20.1890 C.ar    1  UNL1        0.0000
    570 C          -8.2093    9.5744   21.2649 C.ar    1  UNL1        0.0000
    571 C          -5.9105   17.9652   18.1689 C.ar    1  UNL1        0.0000
    572 C         -19.3533   17.4572   19.1837 C.3     1  UNL1        0.0000
    573 C          -2.5499    8.0571   14.3501 C.ar    1  UNL1        0.0000
    574 C         -13.8426   13.7529   25.0733 C.ar    1  UNL1        0.0000
    575 C         -15.6950   14.8681   14.2205 C.2     1  UNL1        0.0000
    576 C         -18.6858    8.1596   24.9321 C.3     1  UNL1        0.0000
    577 C          -3.8932   16.6073   18.2230 C.ar    1  UNL1        0.0000
    578 C           1.6566    4.4430   19.1277 C.ar    1  UNL1        0.0000
    579 C          -7.7019   10.4356   20.2915 C.ar    1  UNL1        0.0000
    580 C         -10.3539   10.7163   21.1632 C.ar    1  UNL1        0.0000
    581 C          -3.9728    7.6272   24.8637 C.ar    1  UNL1        0.0000
    582 C         -14.4236   15.3926   14.2627 C.2     1  UNL1        0.0000
    583 C          -6.8965    0.7491   25.0209 C.ar    1  UNL1        0.0000
    584 C          -2.4790    6.6580   14.4292 C.ar    1  UNL1        0.0000
    585 N          -2.3962    6.0599   15.6662 N.pl3   1  UNL1        0.0000
    586 N          -4.5520    7.4258   23.6277 N.pl3   1  UNL1        0.0000
    587 N          -3.3333   11.8950   20.7494 N.pl3   1  UNL1        0.0000
    588 N          -4.9158    3.0956   22.3946 N.pl3   1  UNL1        0.0000
    589 O          -4.0999   12.1602   18.1868 O.3     1  UNL1        0.0000
    590 O         -14.3884    8.5613   21.1303 O.3     1  UNL1        0.0000
    591 O          -6.9892    4.6812   22.8060 O.3     1  UNL1        0.0000
    592 O         -10.9085   17.0095   16.5329 O.3     1  UNL1        0.0000
    593 O         -10.0155   15.6507   18.1124 O.3     1  UNL1        0.0000
    594 O          -8.5577    4.8729   21.1883 O.3     1  UNL1        0.0000
    595 O          -2.5102   11.8933   16.6000 O.3     1  UNL1        0.0000
    596 O         -15.2383    9.9174   22.7347 O.3     1  UNL1        0.0000
    597 O          -5.1778   11.5467   15.6155 O.3     1  UNL1        0.0000
    598 O         -12.7024    9.1313   23.2199 O.3     1  UNL1        0.0000
    599 O          -4.3167   13.8648   16.0635 O.3     1  UNL1        0.0000
    600 O         -14.3907    7.3461   23.7199 O.3     1  UNL1        0.0000
    601 O          -9.6749    4.3004   23.7846 O.3     1  UNL1        0.0000
    602 O          -8.3651   16.2595   16.0195 O.3     1  UNL1        0.0000
    603 O          -8.8028    6.5943   23.3183 O.3     1  UNL1        0.0000
    604 O         -10.0120   14.4446   15.5092 O.3     1  UNL1        0.0000
    605 O          -6.7594   12.2253   18.3546 O.3     1  UNL1        0.0000
    606 O         -13.1706    6.1151   21.0338 O.2     1  UNL1        0.0000
    607 O          -7.2681    3.5277   25.0723 O.3     1  UNL1        0.0000
    608 O          -9.5910   18.1440   14.2546 O.3     1  UNL1        0.0000
    609 O          -6.5635    6.3421   25.0666 O.3     1  UNL1        0.0000
    610 O         -11.7620   16.2316   14.2044 O.2     1  UNL1        0.0000
    611 O         -11.3056    4.8497   21.1014 O.2     1  UNL1        0.0000
    612 O          -8.7602   13.2572   18.2279 O.3     1  UNL1        0.0000
    613 O          -2.1353   13.5903   14.1936 O.3     1  UNL1        0.0000
    614 O         -16.0826    9.1266   25.0543 O.2     1  UNL1        0.0000
    615 O          -2.8343   10.8099   14.2236 O.3     1  UNL1        0.0000
    616 O         -13.8774   10.9867   25.1254 O.3     1  UNL1        0.0000
    617 O          -7.0653   13.8732   16.1299 O.3     1  UNL1        0.0000
    618 O         -11.4815    6.7015   23.1272 O.3     1  UNL1        0.0000
    619 O          -4.5865   12.7377   13.1819 O.3     1  UNL1        0.0000
    620 O         -13.5728    8.4399   26.1551 O.3     1  UNL1        0.0000
    621 TI        -18.5154    2.0139   37.4857 Ti      1  UNL1        0.0000
    622 TI         -7.8443    5.2817   28.0650 Ti      1  UNL1        0.0000
    623 TI        -14.2944   -1.7751   35.6375 Ti      1  UNL1        0.0000
    624 TI        -13.1353    7.4410   29.8690 Ti      1  UNL1        0.0000
    625 TI        -14.2024    9.0858   27.9725 Ti      1  UNL1        0.0000
    626 TI        -12.3876   -1.9659   37.5800 Ti      1  UNL1        0.0000
    627 TI        -17.5169    0.3144   35.5866 Ti      1  UNL1        0.0000
    628 TI         -9.8311    5.5126   29.9238 Ti      1  UNL1        0.0000
    629 H         -11.9001    1.5511   34.8039 H       1  UNL1        0.0000
    630 H         -22.6718   10.0412   32.6988 H       1  UNL1        0.0000
    631 H         -11.2155   10.9091   30.8709 H       1  UNL1        0.0000
    632 H         -18.1507    5.9264   37.2689 H       5  UNL5        0.0000
    633 H          -6.8983    1.4058   28.3757 H       1  UNL1        0.0000
    634 H         -22.4486    1.1204   37.1242 H       1  UNL1        0.0000
    635 H          -4.5329    7.4023   28.2496 H       1  UNL1        0.0000
    636 H         -11.2743   -5.9635   37.1831 H       2  UNL2        0.0000
    637 H         -18.2360    8.3546   28.3163 H       1  UNL1        0.0000
    638 H         -10.9901    3.1026   33.0474 H       1  UNL1        0.0000
    639 H         -15.6923    3.5688   34.6266 H       1  UNL1        0.0000
    640 H          -3.2061   -1.9298   32.5990 H       1  UNL1        0.0000
    641 H         -17.9743    0.2303   39.2047 H       1  UNL1        0.0000
    642 H          -9.7197    4.9759   26.3751 H       1  UNL1        0.0000
    643 H         -11.8856   -2.6082   32.0653 H       1  UNL1        0.0000
    644 H         -14.9014    9.2126   33.5000 H       1  UNL1        0.0000
    645 H         -21.7069    3.5596   35.2580 H       1  UNL1        0.0000
    646 H          -5.0058    3.2918   30.3527 H       1  UNL1        0.0000
    647 H         -19.3755    2.1972   31.9094 H       1  UNL1        0.0000
    648 H         -17.3510   10.8018   30.3455 H       1  UNL1        0.0000
    649 H         -13.9136   12.1994   28.8301 H       1  UNL1        0.0000
    650 H          -6.9790   -0.6188   29.5763 H       1  UNL1        0.0000
    651 H         -11.0404    7.1958   28.5183 H       1  UNL1        0.0000
    652 H         -15.4315    0.0330   36.9397 H       1  UNL1        0.0000
    653 H          -8.2318    0.1172   35.9489 H       1  UNL1        0.0000
    654 H          -9.6915   -0.4041   36.7038 H       1  UNL1        0.0000
    655 H          -7.8185    4.5694   34.8530 H       1  UNL1        0.0000
    656 H          -8.4094    4.9099   33.2382 H       1  UNL1        0.0000
    657 H          -8.5489   -4.8514   35.7547 H       1  UNL1        0.0000
    658 H          -9.8630   -3.7966   36.2207 H       1  UNL1        0.0000
    659 H         -14.2356    1.8100   35.5766 H       1  UNL1        0.0000
    660 H         -14.7832    5.1254   32.8691 H       1  UNL1        0.0000
    661 H          -9.9061    8.9678   30.0659 H       1  UNL1        0.0000
    662 H          -7.6480    8.5084   30.9651 H       1  UNL1        0.0000
    663 C          -7.2248    4.5576   30.9242 C.3     1  UNL1        0.0000
    664 C         -19.5003    2.2451   34.6444 C.3     1  UNL1        0.0000
    665 C         -11.6855   -2.6942   34.6971 C.3     1  UNL1        0.0000
    666 C         -15.1335    9.3418   30.8418 C.3     1  UNL1        0.0000
    667 C          -6.3027    3.9836   31.9136 C.ar    1  UNL1        0.0000
    668 C         -20.4589    2.8385   33.6734 C.2     1  UNL1        0.0000
    669 C         -10.7298   -3.2743   33.7439 C.ar    1  UNL1        0.0000
    670 C         -16.0397    9.9560   31.8474 C.ar    1  UNL1        0.0000
    671 C          -6.5461    4.0482   33.3215 C.ar    1  UNL1        0.0000
    672 C         -20.2462    2.7278   32.2841 C.3     1  UNL1        0.0000
    673 C          -9.5720   -3.9954   34.1896 C.ar    1  UNL1        0.0000
    674 C         -17.1631   10.6909   31.4097 C.ar    1  UNL1        0.0000
    675 C         -15.7718    9.7926   33.2006 C.ar    1  UNL1        0.0000
    676 C         -10.9897   -3.1492   32.3615 C.ar    1  UNL1        0.0000
    677 C          -5.1481    3.3251   31.4306 C.ar    1  UNL1        0.0000
    678 C         -21.5797    3.4916   34.1792 C.2     1  UNL1        0.0000
    679 C         -12.8334    4.2058   32.8601 C.ar    1  UNL1        0.0000
    680 C         -13.8450    2.4785   34.8114 C.ar    1  UNL1        0.0000
    681 C          -9.4857    9.6247   30.8257 C.ar    1  UNL1        0.0000
    682 C         -17.3771   -3.0463   32.7488 C.2     1  UNL1        0.0000
    683 C          -6.9320    1.4867   26.2319 C.ar    1  UNL1        0.0000
    684 C         -13.8080   13.0459   26.3092 C.ar    1  UNL1        0.0000
    685 C          -8.9629    0.0938   39.2104 C.2     1  UNL1        0.0000
    686 C         -22.3668    1.1702   39.2673 C.2     1  UNL1        0.0000
    687 C         -12.2965    5.1229   31.8261 C.3     1  UNL1        0.0000
    688 C         -16.7920   -2.1350   33.7608 C.2     1  UNL1        0.0000
    689 C         -11.4310   -4.3032   39.3217 C.3     1  UNL1        0.0000
    690 C         -13.8510   11.6100   26.2702 C.3     1  UNL1        0.0000
    691 C         -10.2382   -0.5679   39.2636 C.2     1  UNL1        0.0000
    692 C         -20.9796    1.6331   39.2845 C.2     1  UNL1        0.0000
    693 C         -14.1642    4.3410   33.2993 C.ar    1  UNL1        0.0000
    694 C         -12.5218    2.3352   34.3751 C.ar    1  UNL1        0.0000
    695 C         -10.2230   10.7260   31.2792 C.ar    1  UNL1        0.0000
    696 C         -23.6658   10.2180   32.2939 C.3     1  UNL1        0.0000
    697 C          -6.8625    0.8179   27.4604 C.ar    1  UNL1        0.0000
    698 C         -18.1551    6.5137   38.1835 C.2     5  UNL5        0.0000
    699 C         -20.0075    7.6289   27.3308 C.2     1  UNL1        0.0000
    700 C         -22.9984    0.9204   38.0424 C.3     1  UNL1        0.0000
    701 C          -8.2057    9.3680   31.3332 C.ar    1  UNL1        0.0000
    702 C          -2.6559   -2.7962   32.2379 C.ar    1  UNL1        0.0000
    703 C         -12.0144    3.1964   33.4017 C.ar    1  UNL1        0.0000
    704 C         -14.6664    3.4771   34.2734 C.ar    1  UNL1        0.0000
    705 C          -8.2853    0.3880   37.9739 C.2     1  UNL1        0.0000
    706 C         -18.7362    8.1534   27.3730 C.2     1  UNL1        0.0000
    707 C         -11.2090   -6.4901   38.1312 C.2     2  UNL2        0.0000
    708 C          -6.7916   -0.5812   27.5394 C.ar    1  UNL1        0.0000
    709 N          -6.7088   -1.1793   28.7764 N.pl3   1  UNL1        0.0000
    710 N          -8.8645    0.1866   36.7380 N.pl3   1  UNL1        0.0000
    711 N          -7.6458    4.6557   33.8596 N.pl3   1  UNL1        0.0000
    712 N          -9.2283   -4.1436   35.5049 N.pl3   1  UNL1        0.0000
    713 O          -8.4125    4.9210   31.2971 O.3     1  UNL1        0.0000
    714 O         -18.7009    1.3221   34.2406 O.3     1  UNL1        0.0000
    715 O         -11.3018   -2.5580   35.9163 O.3     1  UNL1        0.0000
    716 O         -15.2210    9.7703   29.6432 O.3     1  UNL1        0.0000
    717 O         -14.3280    8.4115   31.2227 O.3     1  UNL1        0.0000
    718 O         -12.8703   -2.3663   34.2986 O.3     1  UNL1        0.0000
    719 O          -6.8228    4.6541   29.7103 O.3     1  UNL1        0.0000
    720 O         -19.5508    2.6782   35.8450 O.3     1  UNL1        0.0000
    721 O          -9.4903    4.3075   28.7258 O.3     1  UNL1        0.0000
    722 O         -17.0149    1.8921   36.3302 O.3     1  UNL1        0.0000
    723 O          -8.6292    6.6256   29.1737 O.3     1  UNL1        0.0000
    724 O         -18.7032    0.1069   36.8302 O.3     1  UNL1        0.0000
    725 O         -13.9874   -2.9388   36.8949 O.3     1  UNL1        0.0000
    726 O         -12.6776    9.0203   29.1298 O.3     1  UNL1        0.0000
    727 O         -13.1154   -0.6449   36.4286 O.3     1  UNL1        0.0000
    728 O         -14.3245    7.2054   28.6194 O.3     1  UNL1        0.0000
    729 O         -11.0719    4.9861   31.4649 O.3     1  UNL1        0.0000
    730 O         -17.4832   -1.1241   34.1441 O.2     1  UNL1        0.0000
    731 O         -11.5806   -3.7115   38.1826 O.3     1  UNL1        0.0000
    732 O         -13.9035   10.9048   27.3649 O.3     1  UNL1        0.0000
    733 O         -10.8761   -0.8971   38.1769 O.2     1  UNL1        0.0000
    734 O         -16.0745    8.9924   27.3147 O.2     1  UNL1        0.0000
    735 O         -15.6181   -2.3895   34.2117 O.2     1  UNL1        0.0000
    736 O         -13.0727    6.0180   31.3382 O.3     1  UNL1        0.0000
    737 O          -6.4478    6.3511   27.3039 O.3     1  UNL1        0.0000
    738 O         -20.3951    1.8874   38.1645 O.2     1  UNL1        0.0000
    739 O          -7.1468    3.5707   27.3338 O.3     1  UNL1        0.0000
    740 O         -18.1899    3.7475   38.2357 O.3     1  UNL1        0.0000
    741 O         -11.3779    6.6340   29.2402 O.3     1  UNL1        0.0000
    742 O         -15.7940   -0.5377   36.2375 O.3     1  UNL1        0.0000
    743 O          -8.8990    5.4985   26.2921 O.3     1  UNL1        0.0000
    744 O         -17.8853    1.2007   39.2653 O.3     1  UNL1        0.0000
    745 TI        -16.9122   30.8691   11.2652 Ti      1  UNL1        0.0000
    746 TI         -6.2412   34.1369    1.8444 Ti      1  UNL1        0.0000
    747 TI        -12.6912   27.0801    9.4170 Ti      1  UNL1        0.0000
    748 TI        -11.5322   36.2962    3.6484 Ti      1  UNL1        0.0000
    749 TI        -12.5993   37.9411    1.7520 Ti      1  UNL1        0.0000
    750 TI        -10.7844   26.8893   11.3595 Ti      1  UNL1        0.0000
    751 TI        -15.9138   29.1696    9.3660 Ti      1  UNL1        0.0000
    752 TI         -8.2279   34.3678    3.7033 Ti      1  UNL1        0.0000
    753 H         -10.2970   30.4063    8.5834 H       1  UNL1        0.0000
    754 H         -21.0687   38.8964    6.4782 H       6  UNL6        0.0000
    755 H          -9.6124   39.7643    4.6503 H       4  UNL4        0.0000
    756 H         -16.5475   34.7816   11.0484 H       1  UNL1        0.0000
    757 H          -5.2951   30.2610    2.1552 H       1  UNL1        0.0000
    758 H         -20.8455   29.9756   10.9036 H       1  UNL1        0.0000
    759 H          -2.9298   36.2575    2.0291 H      16  UNL16       0.0000
    760 H          -9.6712   22.8917   10.9625 H       1  UNL1        0.0000
    761 H         -16.6329   37.2098    2.0957 H       7  UNL7        0.0000
    762 H          -9.3870   31.9578    6.8269 H       1  UNL1        0.0000
    763 H         -14.0892   32.4240    8.4060 H       1  UNL1        0.0000
    764 H          -1.6030   26.9254    6.3785 H       1  UNL1        0.0000
    765 H         -16.3711   29.0855   12.9842 H       1  UNL1        0.0000
    766 H          -8.1166   33.8311    0.1546 H       1  UNL1        0.0000
    767 H         -10.2825   26.2470    5.8447 H       1  UNL1        0.0000
    768 H         -13.2983   38.0678    7.2795 H       1  UNL1        0.0000
    769 H         -20.1038   32.4148    9.0374 H       1  UNL1        0.0000
    770 H          -3.4027   32.1470    4.1322 H       1  UNL1        0.0000
    771 H         -17.7724   31.0524    5.6889 H       1  UNL1        0.0000
    772 H         -15.7479   39.6570    4.1249 H       1  UNL1        0.0000
    773 H         -12.3105   41.0546    2.6096 H       5  UNL5        0.0000
    774 H          -5.3759   28.2364    3.3557 H       1  UNL1        0.0000
    775 H          -9.4373   36.0510    2.2978 H       1  UNL1        0.0000
    776 H         -13.8284   28.8882   10.7192 H       1  UNL1        0.0000
    777 H          -6.6287   28.9724    9.7284 H       1  UNL1        0.0000
    778 H          -8.0884   28.4512   10.4833 H       1  UNL1        0.0000
    779 H          -6.2154   33.4246    8.6325 H       1  UNL1        0.0000
    780 H          -6.8063   33.7651    7.0176 H       1  UNL1        0.0000
    781 H          -6.9458   24.0038    9.5342 H       1  UNL1        0.0000
    782 H          -8.2599   25.0586   10.0002 H       1  UNL1        0.0000
    783 H         -12.6324   30.6652    9.3560 H       1  UNL1        0.0000
    784 H         -13.1801   33.9807    6.6485 H       1  UNL1        0.0000
    785 H          -8.3030   37.8230    3.8453 H       4  UNL4        0.0000
    786 H          -6.0449   37.3636    4.7446 H       4  UNL4        0.0000
    787 C          -5.6217   33.4128    4.7037 C.3     1  UNL1        0.0000
    788 C         -17.8972   31.1003    8.4239 C.3     1  UNL1        0.0000
    789 C         -10.0824   26.1610    8.4766 C.3     1  UNL1        0.0000
    790 C         -13.5304   38.1970    4.6213 C.3     1  UNL1        0.0000
    791 C          -4.6996   32.8389    5.6930 C.ar    1  UNL1        0.0000
    792 C         -18.8558   31.6937    7.4529 C.2     1  UNL1        0.0000
    793 C          -9.1266   25.5809    7.5233 C.ar    1  UNL1        0.0000
    794 C         -14.4365   38.8112    5.6269 C.2     1  UNL1        0.0000
    795 C          -4.9430   32.9034    7.1009 C.ar    1  UNL1        0.0000
    796 C         -18.6431   31.5830    6.0635 C.3     1  UNL1        0.0000
    797 C          -7.9689   24.8598    7.9691 C.ar    1  UNL1        0.0000
    798 C         -15.5600   39.5461    5.1891 C.3     1  UNL1        0.0000
    799 C         -14.1687   38.6478    6.9801 C.2     1  UNL1        0.0000
    800 C          -9.3865   25.7060    6.1410 C.ar    1  UNL1        0.0000
    801 C          -3.5450   32.1803    5.2100 C.ar    1  UNL1        0.0000
    802 C         -19.9765   32.3468    7.9586 C.2     1  UNL1        0.0000
    803 C         -11.2303   33.0610    6.6396 C.ar    1  UNL1        0.0000
    804 C         -12.2418   31.3338    8.5908 C.ar    1  UNL1        0.0000
    805 C          -7.8825   38.4799    4.6051 C.2     4  UNL4        0.0000
    806 C         -15.7739   25.8089    6.5282 C.2     1  UNL1        0.0000
    807 C          -5.3288   30.3419    0.0113 C.3     1  UNL1        0.0000
    808 C         -12.2049   41.9011    0.0887 C.3     1  UNL1        0.0000
    809 C          -7.3598   28.9490   12.9898 C.ar    1  UNL1        0.0000
    810 C         -20.7636   30.0254   13.0467 C.2     1  UNL1        0.0000
    811 C         -10.6934   33.9781    5.6056 C.3     1  UNL1        0.0000
    812 C         -15.1889   26.7202    7.5402 C.2     1  UNL1        0.0000
    813 C          -9.8279   24.5520   13.1012 C.3     1  UNL1        0.0000
    814 C         -12.2479   40.4652    0.0497 C.3     1  UNL1        0.0000
    815 C          -8.6351   28.2873   13.0430 C.3     1  UNL1        0.0000
    816 C         -19.3765   30.4883   13.0640 C.2     1  UNL1        0.0000
    817 C         -12.5610   33.1962    7.0787 C.ar    1  UNL1        0.0000
    818 C         -10.9187   31.1904    8.1546 C.ar    1  UNL1        0.0000
    819 C          -8.6199   39.5812    5.0587 C.2     4  UNL4        0.0000
    820 C         -22.0627   39.0732    6.0734 C.3     6  UNL6        0.0000
    821 C          -5.2593   29.6731    1.2398 C.2     1  UNL1        0.0000
    822 C         -16.5520   35.3689   11.9630 C.3     1  UNL1        0.0000
    823 C         -18.4044   36.4842    1.1102 C.2     7  UNL7        0.0000
    824 C         -21.3952   29.7756   11.8218 C.3     1  UNL1        0.0000
    825 C          -6.6026   38.2233    5.1127 C.2     4  UNL4        0.0000
    826 C          -1.0528   26.0590    6.0174 C.ar    1  UNL1        0.0000
    827 C         -10.4113   32.0517    7.1812 C.ar    1  UNL1        0.0000
    828 C         -13.0633   32.3323    8.0529 C.ar    1  UNL1        0.0000
    829 C          -6.6822   29.2432   11.7534 C.ar    1  UNL1        0.0000
    830 C         -17.1330   37.0086    1.1525 C.2     7  UNL7        0.0000
    831 C          -9.6059   22.3652   11.9106 C.ar    1  UNL1        0.0000
    832 C          -5.1884   28.2740    1.3189 C.2     1  UNL1        0.0000
    833 N          -5.1056   27.6760    2.5559 N.pl3   1  UNL1        0.0000
    834 N          -7.2614   29.0418   10.5174 N.pl3   1  UNL1        0.0000
    835 N          -6.0427   33.5110    7.6391 N.pl3   1  UNL1        0.0000
    836 N          -7.6252   24.7116    9.2844 N.pl3   1  UNL1        0.0000
    837 O          -6.8093   33.7763    5.0765 O.3     1  UNL1        0.0000
    838 O         -17.0978   30.1773    8.0200 O.3     1  UNL1        0.0000
    839 O          -9.6986   26.2972    9.6957 O.3     1  UNL1        0.0000
    840 O         -13.6179   38.6256    3.4226 O.3     1  UNL1        0.0000
    841 O         -12.7249   37.2667    5.0021 O.3     1  UNL1        0.0000
    842 O         -11.2671   26.4890    8.0781 O.3     1  UNL1        0.0000
    843 O          -5.2196   33.5093    3.4898 O.3     1  UNL1        0.0000
    844 O         -17.9477   31.5334    9.6244 O.3     1  UNL1        0.0000
    845 O          -7.8872   33.1627    2.5052 O.3     1  UNL1        0.0000
    846 O         -15.4118   30.7474   10.1096 O.3     1  UNL1        0.0000
    847 O          -7.0261   35.4808    2.9532 O.3     1  UNL1        0.0000
    848 O         -17.1001   28.9621   10.6096 O.3     1  UNL1        0.0000
    849 O         -12.3843   25.9164   10.6743 O.3     1  UNL1        0.0000
    850 O         -11.0745   37.8755    2.9093 O.3     1  UNL1        0.0000
    851 O         -11.5122   28.2103   10.2080 O.3     1  UNL1        0.0000
    852 O         -12.7214   36.0607    2.3989 O.3     1  UNL1        0.0000
    853 O          -9.4688   33.8413    5.2443 O.3     1  UNL1        0.0000
    854 O         -15.8800   27.7311    7.9235 O.2     1  UNL1        0.0000
    855 O          -9.9775   25.1437   11.9620 O.3     1  UNL1        0.0000
    856 O         -12.3004   39.7600    1.1444 O.3     1  UNL1        0.0000
    857 O          -9.2729   27.9581   11.9563 O.3     1  UNL1        0.0000
    858 O         -14.4714   37.8476    1.0941 O.3     1  UNL1        0.0000
    859 O         -14.0150   26.4657    7.9912 O.2     1  UNL1        0.0000
    860 O         -11.4696   34.8732    5.1176 O.3     1  UNL1        0.0000
    861 O          -4.8447   35.2063    1.0833 O.3     1  UNL1        0.0000
    862 O         -18.7920   30.7426   11.9440 O.2     1  UNL1        0.0000
    863 O          -5.5437   32.4259    1.1133 O.3     1  UNL1        0.0000
    864 O         -16.5868   32.6028   12.0151 O.2     1  UNL1        0.0000
    865 O          -9.7747   35.4892    3.0197 O.3     1  UNL1        0.0000
    866 O         -14.1909   28.3175   10.0169 O.3     1  UNL1        0.0000
    867 O          -7.2959   34.3538    0.0716 O.3     1  UNL1        0.0000
    868 O         -16.2822   30.0559   13.0448 O.3     1  UNL1        0.0000
    869 TI        -21.2248   23.6299   24.3754 Ti      1  UNL1        0.0000
    870 TI        -10.5537   26.8977   14.9547 Ti      1  UNL1        0.0000
    871 TI        -17.0038   19.8409   22.5273 Ti      1  UNL1        0.0000
    872 TI        -15.8447   29.0570   16.7587 Ti      1  UNL1        0.0000
    873 TI        -16.9118   30.7018   14.8622 Ti      1  UNL1        0.0000
    874 TI        -15.0970   19.6501   24.4698 Ti      1  UNL1        0.0000
    875 TI        -20.2263   21.9304   22.4763 Ti      1  UNL1        0.0000
    876 TI        -12.5405   27.1286   16.8136 Ti      1  UNL1        0.0000
    877 H         -14.6095   23.1671   21.6937 H       1  UNL1        0.0000
    878 H         -25.3812   31.6572   19.5885 H       8  UNL8        0.0000
    879 H         -13.9249   32.5251   17.7606 H       7  UNL7        0.0000
    880 H         -20.8601   27.5424   24.1586 H       1  UNL1        0.0000
    881 H          -9.6077   23.0218   15.2654 H       1  UNL1        0.0000
    882 H         -25.1580   22.7364   24.0139 H       1  UNL1        0.0000
    883 H          -7.2423   29.0183   15.1394 H       1  UNL1        0.0000
    884 H         -13.9837   15.6525   24.0728 H       1  UNL1        0.0000
    885 H         -20.9455   29.9706   15.2060 H       1  UNL1        0.0000
    886 H         -13.6995   24.7186   19.9372 H       1  UNL1        0.0000
    887 H         -18.4017   25.1848   21.5163 H       1  UNL1        0.0000
    888 H          -5.9155   19.6862   19.4887 H       1  UNL1        0.0000
    889 H         -20.6837   21.8463   26.0944 H       1  UNL1        0.0000
    890 H         -12.4291   26.5919   13.2649 H       1  UNL1        0.0000
    891 H         -14.5950   19.0078   18.9550 H       1  UNL1        0.0000
    892 H         -17.6108   30.8286   20.3897 H       1  UNL1        0.0000
    893 H         -24.4163   25.1756   22.1477 H       1  UNL1        0.0000
    894 H          -7.7152   24.9078   17.2425 H       1  UNL1        0.0000
    895 H         -22.0849   23.8132   18.7991 H       1  UNL1        0.0000
    896 H         -20.0604   32.4178   17.2352 H       1  UNL1        0.0000
    897 H         -16.6230   33.8154   15.7198 H       8  UNL8        0.0000
    898 H          -9.6884   20.9972   16.4660 H       1  UNL1        0.0000
    899 H         -13.7498   28.8118   15.4080 H       1  UNL1        0.0000
    900 H         -18.1409   21.6490   23.8294 H       1  UNL1        0.0000
    901 H         -10.9412   21.7332   22.8387 H       1  UNL1        0.0000
    902 H         -12.4009   21.2120   23.5936 H       1  UNL1        0.0000
    903 H         -10.5279   26.1854   21.7428 H       1  UNL1        0.0000
    904 H         -11.1188   26.5259   20.1279 H       1  UNL1        0.0000
    905 H         -11.2583   16.7646   22.6444 H       1  UNL1        0.0000
    906 H         -12.5724   17.8194   23.1105 H       1  UNL1        0.0000
    907 H         -16.9450   23.4260   22.4663 H       1  UNL1        0.0000
    908 H         -17.4926   26.7415   19.7588 H       1  UNL1        0.0000
    909 H         -12.6155   30.5838   16.9556 H       7  UNL7        0.0000
    910 H         -10.3574   30.1244   17.8549 H       7  UNL7        0.0000
    911 C          -9.9342   26.1736   17.8139 C.3     1  UNL1        0.0000
    912 C         -22.2097   23.8611   21.5341 C.3     1  UNL1        0.0000
    913 C         -14.3949   18.9218   21.5868 C.3     1  UNL1        0.0000
    914 C         -17.8429   30.9578   17.7315 C.3     1  UNL1        0.0000
    915 C          -9.0121   25.5997   18.8033 C.ar    1  UNL1        0.0000
    916 C         -23.1683   24.4545   20.5632 C.2     1  UNL1        0.0000
    917 C         -13.4392   18.3417   20.6336 C.ar    1  UNL1        0.0000
    918 C         -18.7491   31.5720   18.7372 C.2     1  UNL1        0.0000
    919 C          -9.2555   25.6642   20.2112 C.ar    1  UNL1        0.0000
    920 C         -22.9556   24.3438   19.1738 C.3     1  UNL1        0.0000
    921 C         -12.2814   17.6206   21.0793 C.ar    1  UNL1        0.0000
    922 C         -19.8725   32.3069   18.2994 C.3     1  UNL1        0.0000
    923 C         -18.4812   31.4086   20.0904 C.2     1  UNL1        0.0000
    924 C         -13.6991   18.4668   19.2512 C.ar    1  UNL1        0.0000
    925 C          -7.8575   24.9411   18.3203 C.ar    1  UNL1        0.0000
    926 C         -24.2891   25.1076   21.0689 C.2     1  UNL1        0.0000
    927 C         -15.5428   25.8218   19.7498 C.ar    1  UNL1        0.0000
    928 C         -16.5544   24.0946   21.7011 C.ar    1  UNL1        0.0000
    929 C         -12.1951   31.2407   17.7154 C.2     7  UNL7        0.0000
    930 C         -20.0865   18.5697   19.6385 C.2     1  UNL1        0.0000
    931 C          -9.6414   23.1027   13.1216 C.ar    1  UNL1        0.0000
    932 C         -16.5174   34.6619   13.1989 C.2     1  UNL1        0.0000
    933 C         -11.6723   21.7098   26.1001 C.ar    1  UNL1        0.0000
    934 C         -25.0762   22.7862   26.1570 C.2     1  UNL1        0.0000
    935 C         -15.0060   26.7389   18.7159 C.3     1  UNL1        0.0000
    936 C         -19.5014   19.4810   20.6505 C.2     1  UNL1        0.0000
    937 C         -14.1404   17.3128   26.2114 C.3     1  UNL1        0.0000
    938 C         -16.5604   33.2260   13.1600 C.2     1  UNL1        0.0000
    939 C         -12.9476   21.0481   26.1533 C.3     1  UNL1        0.0000
    940 C         -23.6890   23.2491   26.1743 C.2     1  UNL1        0.0000
    941 C         -16.8736   25.9570   20.1890 C.ar    1  UNL1        0.0000
    942 C         -15.2312   23.9512   21.2649 C.ar    1  UNL1        0.0000
    943 C         -12.9324   32.3420   18.1689 C.2     7  UNL7        0.0000
    944 C         -26.3752   31.8340   19.1837 C.3     9  UNL9        0.0000
    945 C          -9.5719   22.4339   14.3501 C.ar    1  UNL1        0.0000
    946 C         -20.8645   28.1297   25.0733 C.3     1  UNL1        0.0000
    947 C         -22.7169   29.2450   14.2205 C.2     1  UNL1        0.0000
    948 C         -25.7078   22.5364   24.9321 C.3     1  UNL1        0.0000
    949 C         -10.9152   30.9841   18.2230 C.2     7  UNL7        0.0000
    950 C          -5.3653   18.8198   19.1277 C.ar    1  UNL1        0.0000
    951 C         -14.7238   24.8125   20.2915 C.ar    1  UNL1        0.0000
    952 C         -17.3758   25.0931   21.1632 C.ar    1  UNL1        0.0000
    953 C         -10.9947   22.0040   24.8637 C.ar    1  UNL1        0.0000
    954 C         -21.4456   29.7694   14.2627 C.2     1  UNL1        0.0000
    955 C         -13.9184   15.1260   25.0209 C.ar    1  UNL1        0.0000
    956 C          -9.5010   21.0348   14.4292 C.ar    1  UNL1        0.0000
    957 N          -9.4182   20.4368   15.6662 N.pl3   1  UNL1        0.0000
    958 N         -11.5739   21.8026   23.6277 N.pl3   1  UNL1        0.0000
    959 N         -10.3552   26.2718   20.7494 N.pl3   1  UNL1        0.0000
    960 N         -11.9378   17.4724   22.3946 N.pl3   1  UNL1        0.0000
    961 O         -11.1219   26.5371   18.1868 O.3     1  UNL1        0.0000
    962 O         -21.4103   22.9381   21.1303 O.3     1  UNL1        0.0000
    963 O         -14.0112   19.0580   22.8060 O.3     1  UNL1        0.0000
    964 O         -17.9304   31.3864   16.5329 O.3     1  UNL1        0.0000
    965 O         -17.0374   30.0275   18.1124 O.3     1  UNL1        0.0000
    966 O         -15.5797   19.2497   21.1883 O.3     1  UNL1        0.0000
    967 O          -9.5322   26.2701   16.6000 O.3     1  UNL1        0.0000
    968 O         -22.2602   24.2942   22.7347 O.3     1  UNL1        0.0000
    969 O         -12.1997   25.9235   15.6155 O.3     1  UNL1        0.0000
    970 O         -19.7243   23.5082   23.2199 O.3     1  UNL1        0.0000
    971 O         -11.3386   28.2416   16.0635 O.3     1  UNL1        0.0000
    972 O         -21.4126   21.7229   23.7199 O.3     1  UNL1        0.0000
    973 O         -16.6968   18.6772   23.7846 O.3     1  UNL1        0.0000
    974 O         -15.3870   30.6363   16.0195 O.3     1  UNL1        0.0000
    975 O         -15.8248   20.9711   23.3183 O.3     1  UNL1        0.0000
    976 O         -17.0339   28.8215   15.5092 O.3     1  UNL1        0.0000
    977 O         -13.7813   26.6021   18.3546 O.3     1  UNL1        0.0000
    978 O         -20.1926   20.4919   21.0338 O.2     1  UNL1        0.0000
    979 O         -14.2900   17.9045   25.0723 O.3     1  UNL1        0.0000
    980 O         -16.6129   32.5208   14.2546 O.2     1  UNL1        0.0000
    981 O         -13.5855   20.7189   25.0666 O.3     1  UNL1        0.0000
    982 O         -18.7839   30.6084   14.2044 O.2     1  UNL1        0.0000
    983 O         -18.3275   19.2265   21.1014 O.2     1  UNL1        0.0000
    984 O         -15.7821   27.6340   18.2279 O.3     1  UNL1        0.0000
    985 O          -9.1572   27.9671   14.1936 O.3     1  UNL1        0.0000
    986 O         -23.1045   23.5034   25.0543 O.2     1  UNL1        0.0000
    987 O          -9.8563   25.1867   14.2236 O.3     1  UNL1        0.0000
    988 O         -20.8993   25.3636   25.1254 O.2     1  UNL1        0.0000
    989 O         -14.0873   28.2500   16.1299 O.3     1  UNL1        0.0000
    990 O         -18.5034   21.0783   23.1272 O.3     1  UNL1        0.0000
    991 O         -11.6084   27.1146   13.1819 O.3     1  UNL1        0.0000
    992 O         -20.5947   22.8167   26.1551 O.3     1  UNL1        0.0000
    993 TI        -25.5373   16.3907   37.4857 Ti      1  UNL1        0.0000
    994 TI        -14.8662   19.6585   28.0650 Ti      1  UNL1        0.0000
    995 TI        -21.3163   12.6017   35.6375 Ti      1  UNL1        0.0000
    996 TI        -20.1573   21.8178   29.8690 Ti      1  UNL1        0.0000
    997 TI        -21.2243   23.4626   27.9725 Ti      1  UNL1        0.0000
    998 TI        -19.4095   12.4109   37.5800 Ti      1  UNL1        0.0000
    999 TI        -24.5388   14.6912   35.5866 Ti      1  UNL1        0.0000
   1000 TI        -16.8530   19.8894   29.9238 Ti      1  UNL1        0.0000
   1001 H         -18.9220   15.9279   34.8039 H       1  UNL1        0.0000
   1002 H         -29.6938   24.4180   32.6988 H       9  UNL9        0.0000
   1003 H         -18.2374   25.2859   30.8709 H      10  UNL10       0.0000
   1004 H         -25.1726   20.3032   37.2689 H      10  UNL10       0.0000
   1005 H         -13.9202   15.7826   28.3757 H       1  UNL1        0.0000
   1006 H         -29.4705   15.4972   37.1242 H       1  UNL1        0.0000
   1007 H         -11.5548   21.7791   28.2496 H       1  UNL1        0.0000
   1008 H         -18.2962    8.4133   37.1831 H       5  UNL5        0.0000
   1009 H         -25.2580   22.7314   28.3163 H       1  UNL1        0.0000
   1010 H         -18.0120   17.4794   33.0474 H       1  UNL1        0.0000
   1011 H         -22.7142   17.9456   34.6266 H       1  UNL1        0.0000
   1012 H         -10.2281   12.4470   32.5990 H       1  UNL1        0.0000
   1013 H         -24.9962   14.6071   39.2047 H       1  UNL1        0.0000
   1014 H         -16.7417   19.3527   26.3751 H       1  UNL1        0.0000
   1015 H         -18.9075   11.7686   32.0653 H       1  UNL1        0.0000
   1016 H         -21.9234   23.5894   33.5000 H       1  UNL1        0.0000
   1017 H         -28.7289   17.9364   35.2580 H       1  UNL1        0.0000
   1018 H         -12.0277   17.6686   30.3527 H       1  UNL1        0.0000
   1019 H         -26.3975   16.5740   31.9094 H       1  UNL1        0.0000
   1020 H         -24.3729   25.1786   30.3455 H       1  UNL1        0.0000
   1021 H         -20.9355   26.5762   28.8301 H      11  UNL11       0.0000
   1022 H         -14.0009   13.7580   29.5763 H       1  UNL1        0.0000
   1023 H         -18.0623   21.5726   28.5183 H       1  UNL1        0.0000
   1024 H         -22.4534   14.4098   36.9397 H       1  UNL1        0.0000
   1025 H         -15.2538   14.4940   35.9489 H       1  UNL1        0.0000
   1026 H         -16.7134   13.9728   36.7038 H       1  UNL1        0.0000
   1027 H         -14.8405   18.9462   34.8530 H       1  UNL1        0.0000
   1028 H         -15.4314   19.2867   33.2382 H       1  UNL1        0.0000
   1029 H         -15.5709    9.5254   35.7547 H       1  UNL1        0.0000
   1030 H         -16.8850   10.5802   36.2207 H       1  UNL1        0.0000
   1031 H         -21.2575   16.1868   35.5766 H       1  UNL1        0.0000
   1032 H         -21.8052   19.5023   32.8691 H       1  UNL1        0.0000
   1033 H         -16.9280   23.3446   30.0659 H      10  UNL10       0.0000
   1034 H         -14.6699   22.8852   30.9651 H      10  UNL10       0.0000
   1035 C         -14.2467   18.9344   30.9242 C.3     1  UNL1        0.0000
   1036 C         -26.5223   16.6219   34.6444 C.3     1  UNL1        0.0000
   1037 C         -18.7074   11.6826   34.6971 C.3     1  UNL1        0.0000
   1038 C         -22.1554   23.7186   30.8418 C.3     1  UNL1        0.0000
   1039 C         -13.3247   18.3605   31.9136 C.ar    1  UNL1        0.0000
   1040 C         -27.4808   17.2153   33.6734 C.2     1  UNL1        0.0000
   1041 C         -17.7517   11.1025   33.7439 C.ar    1  UNL1        0.0000
   1042 C         -23.0616   24.3328   31.8474 C.2     1  UNL1        0.0000
   1043 C         -13.5680   18.4250   33.3215 C.ar    1  UNL1        0.0000
   1044 C         -27.2681   17.1046   32.2841 C.3     1  UNL1        0.0000
   1045 C         -16.5940   10.3814   34.1896 C.ar    1  UNL1        0.0000
   1046 C         -24.1850   25.0677   31.4097 C.3     1  UNL1        0.0000
   1047 C         -22.7937   24.1694   33.2006 C.2     1  UNL1        0.0000
   1048 C         -18.0116   11.2276   32.3615 C.ar    1  UNL1        0.0000
   1049 C         -12.1700   17.7019   31.4306 C.ar    1  UNL1        0.0000
   1050 C         -28.6016   17.8684   34.1792 C.2     1  UNL1        0.0000
   1051 C         -19.8553   18.5826   32.8601 C.ar    1  UNL1        0.0000
   1052 C         -20.8669   16.8554   34.8114 C.ar    1  UNL1        0.0000
   1053 C         -16.5076   24.0015   30.8257 C.2    10  UNL10       0.0000
   1054 C         -24.3990   11.3305   32.7488 C.2     1  UNL1        0.0000
   1055 C         -13.9539   15.8635   26.2319 C.ar    1  UNL1        0.0000
   1056 C         -20.8299   27.4227   26.3092 C.2     1  UNL1        0.0000
   1057 C         -15.9849   14.4706   39.2104 C.2     1  UNL1        0.0000
   1058 C         -29.3887   15.5470   39.2673 C.2     1  UNL1        0.0000
   1059 C         -19.3185   19.4997   31.8261 C.3     1  UNL1        0.0000
   1060 C         -23.8139   12.2418   33.7608 C.2     1  UNL1        0.0000
   1061 C         -18.4530   10.0736   39.3217 C.3     1  UNL1        0.0000
   1062 C         -20.8729   25.9868   26.2702 C.2     1  UNL1        0.0000
   1063 C         -17.2601   13.8089   39.2636 C.2     1  UNL1        0.0000
   1064 C         -28.0015   16.0099   39.2845 C.2     1  UNL1        0.0000
   1065 C         -21.1861   18.7178   33.2993 C.ar    1  UNL1        0.0000
   1066 C         -19.5438   16.7120   34.3751 C.ar    1  UNL1        0.0000
   1067 C         -17.2450   25.1028   31.2792 C.2    10  UNL10       0.0000
   1068 C         -30.6878   24.5948   32.2939 C.3    12  UNL12       0.0000
   1069 C         -13.8844   15.1947   27.4604 C.ar    1  UNL1        0.0000
   1070 C         -25.1771   20.8905   38.1835 C.3    13  UNL13       0.0000
   1071 C         -27.0295   22.0058   27.3308 C.2     1  UNL1        0.0000
   1072 C         -30.0203   15.2972   38.0424 C.3     1  UNL1        0.0000
   1073 C         -15.2277   23.7449   31.3332 C.2    10  UNL10       0.0000
   1074 C          -9.6778   11.5806   32.2379 C.ar    1  UNL1        0.0000
   1075 C         -19.0363   17.5732   33.4017 C.ar    1  UNL1        0.0000
   1076 C         -21.6884   17.8539   34.2734 C.ar    1  UNL1        0.0000
   1077 C         -15.3072   14.7648   37.9739 C.2     1  UNL1        0.0000
   1078 C         -25.7581   22.5302   27.3730 C.2     1  UNL1        0.0000
   1079 C         -18.2310    7.8867   38.1312 C.2     5  UNL5        0.0000
   1080 C         -13.8135   13.7956   27.5394 C.ar    1  UNL1        0.0000
   1081 N         -13.7307   13.1976   28.7764 N.pl3   1  UNL1        0.0000
   1082 N         -15.8865   14.5634   36.7380 N.pl3   1  UNL1        0.0000
   1083 N         -14.6678   19.0326   33.8596 N.pl3   1  UNL1        0.0000
   1084 N         -16.2503   10.2332   35.5049 N.pl3   1  UNL1        0.0000
   1085 O         -15.4344   19.2979   31.2971 O.3     1  UNL1        0.0000
   1086 O         -25.7229   15.6989   34.2406 O.3     1  UNL1        0.0000
   1087 O         -18.3237   11.8188   35.9163 O.3     1  UNL1        0.0000
   1088 O         -22.2429   24.1472   29.6432 O.3     1  UNL1        0.0000
   1089 O         -21.3500   22.7883   31.2227 O.3     1  UNL1        0.0000
   1090 O         -19.8922   12.0105   34.2986 O.3     1  UNL1        0.0000
   1091 O         -13.8447   19.0309   29.7103 O.3     1  UNL1        0.0000
   1092 O         -26.5727   17.0550   35.8450 O.3     1  UNL1        0.0000
   1093 O         -16.5123   18.6843   28.7258 O.3     1  UNL1        0.0000
   1094 O         -24.0369   16.2690   36.3302 O.3     1  UNL1        0.0000
   1095 O         -15.6512   21.0024   29.1737 O.3     1  UNL1        0.0000
   1096 O         -25.7252   14.4837   36.8302 O.3     1  UNL1        0.0000
   1097 O         -21.0093   11.4380   36.8949 O.3     1  UNL1        0.0000
   1098 O         -19.6995   23.3971   29.1298 O.3     1  UNL1        0.0000
   1099 O         -20.1373   13.7319   36.4286 O.3     1  UNL1        0.0000
   1100 O         -21.3464   21.5822   28.6194 O.3     1  UNL1        0.0000
   1101 O         -18.0938   19.3629   31.4649 O.3     1  UNL1        0.0000
   1102 O         -24.5051   13.2527   34.1441 O.2     1  UNL1        0.0000
   1103 O         -18.6026   10.6653   38.1826 O.3     1  UNL1        0.0000
   1104 O         -20.9254   25.2816   27.3649 O.2     1  UNL1        0.0000
   1105 O         -17.8980   13.4797   38.1769 O.2     1  UNL1        0.0000
   1106 O         -23.0964   23.3692   27.3147 O.2     1  UNL1        0.0000
   1107 O         -22.6400   11.9873   34.2117 O.2     1  UNL1        0.0000
   1108 O         -20.0947   20.3948   31.3382 O.3     1  UNL1        0.0000
   1109 O         -13.4698   20.7279   27.3039 O.3     1  UNL1        0.0000
   1110 O         -27.4171   16.2642   38.1645 O.2     1  UNL1        0.0000
   1111 O         -14.1688   17.9475   27.3338 O.3     1  UNL1        0.0000
   1112 O         -25.2119   18.1244   38.2357 O.3     1  UNL1        0.0000
   1113 O         -18.3998   21.0108   29.2402 O.3     1  UNL1        0.0000
   1114 O         -22.8160   13.8391   36.2375 O.3     1  UNL1        0.0000
   1115 O         -15.9210   19.8754   26.2921 O.3     1  UNL1        0.0000
   1116 O         -24.9072   15.5775   39.2653 O.3     1  UNL1        0.0000
   1117 TI         13.1410    2.1155   11.2652 Ti      1  UNL1        0.0000
   1118 TI         23.8121    5.3833    1.8444 Ti      1  UNL1        0.0000
   1119 TI         17.3620   -1.6735    9.4170 Ti      1  UNL1        0.0000
   1120 TI         18.5210    7.5426    3.6484 Ti      1  UNL1        0.0000
   1121 TI         17.4540    9.1874    1.7520 Ti      1  UNL1        0.0000
   1122 TI         19.2688   -1.8643   11.3595 Ti      1  UNL1        0.0000
   1123 TI         14.1395    0.4160    9.3660 Ti      1  UNL1        0.0000
   1124 TI         21.8253    5.6142    3.7033 Ti      1  UNL1        0.0000
   1125 H          19.7563    1.6527    8.5834 H       1  UNL1        0.0000
   1126 H           8.9846   10.1428    6.4782 H       1  UNL1        0.0000
   1127 H          20.4409   11.0107    4.6503 H       1  UNL1        0.0000
   1128 H          13.5057    6.0280   11.0484 H       1  UNL1        0.0000
   1129 H          24.7581    1.5074    2.1552 H      14  UNL14       0.0000
   1130 H           9.2078    1.2219   10.9036 H       1  UNL1        0.0000
   1131 H          27.1235    7.5039    2.0291 H      18  UNL18       0.0000
   1132 H          20.3821   -5.8619   10.9625 H       1  UNL1        0.0000
   1133 H          13.4203    8.4562    2.0957 H      11  UNL11       0.0000
   1134 H          20.6663    3.2042    6.8269 H       1  UNL1        0.0000
   1135 H          15.9641    3.6704    8.4060 H       1  UNL1        0.0000
   1136 H          28.4503   -1.8282    6.3785 H       1  UNL1        0.0000
   1137 H          13.6821    0.3319   12.9842 H       1  UNL1        0.0000
   1138 H          21.9367    5.0775    0.1546 H       1  UNL1        0.0000
   1139 H          19.7708   -2.5066    5.8447 H       1  UNL1        0.0000
   1140 H          16.7550    9.3142    7.2795 H       1  UNL1        0.0000
   1141 H           9.9495    3.6612    9.0374 H       1  UNL1        0.0000
   1142 H          26.6506    3.3934    4.1322 H       1  UNL1        0.0000
   1143 H          12.2809    2.2987    5.6889 H       1  UNL1        0.0000
   1144 H          14.3054   10.9034    4.1249 H       1  UNL1        0.0000
   1145 H          17.7428   12.3010    2.6096 H       1  UNL1        0.0000
   1146 H          24.6774   -0.5172    3.3557 H      14  UNL14       0.0000
   1147 H          20.6160    7.2974    2.2978 H       1  UNL1        0.0000
   1148 H          16.2249    0.1346   10.7192 H       1  UNL1        0.0000
   1149 H          23.4246    0.2188    9.7284 H       1  UNL1        0.0000
   1150 H          21.9649   -0.3025   10.4833 H       1  UNL1        0.0000
   1151 H          23.8379    4.6710    8.6325 H       1  UNL1        0.0000
   1152 H          23.2470    5.0115    7.0176 H       1  UNL1        0.0000
   1153 H          23.1075   -4.7498    9.5342 H       1  UNL1        0.0000
   1154 H          21.7934   -3.6950   10.0002 H       1  UNL1        0.0000
   1155 H          17.4208    1.9116    9.3560 H       1  UNL1        0.0000
   1156 H          16.8732    5.2270    6.6485 H       1  UNL1        0.0000
   1157 H          21.7503    9.0694    3.8453 H       1  UNL1        0.0000
   1158 H          24.0084    8.6100    4.7446 H       1  UNL1        0.0000
   1159 C          24.4316    4.6592    4.7037 C.3     1  UNL1        0.0000
   1160 C          12.1561    2.3467    8.4239 C.3     1  UNL1        0.0000
   1161 C          19.9709   -2.5926    8.4766 C.3     1  UNL1        0.0000
   1162 C          16.5229    9.4434    4.6213 C.3     1  UNL1        0.0000
   1163 C          25.3537    4.0852    5.6930 C.ar    1  UNL1        0.0000
   1164 C          11.1975    2.9401    7.4529 C.ar    1  UNL1        0.0000
   1165 C          20.9266   -3.1727    7.5233 C.2     1  UNL1        0.0000
   1166 C          15.6167   10.0576    5.6269 C.ar    1  UNL1        0.0000
   1167 C          25.1103    4.1498    7.1009 C.ar    1  UNL1        0.0000
   1168 C          11.4102    2.8294    6.0635 C.ar    1  UNL1        0.0000
   1169 C          22.0844   -3.8938    7.9691 C.2     1  UNL1        0.0000
   1170 C          14.4933   10.7925    5.1891 C.ar    1  UNL1        0.0000
   1171 C          15.8846    9.8942    6.9801 C.ar    1  UNL1        0.0000
   1172 C          20.6667   -3.0476    6.1410 C.3     1  UNL1        0.0000
   1173 C          26.5083    3.4267    5.2100 C.ar    1  UNL1        0.0000
   1174 C          10.0767    3.5932    7.9586 C.ar    1  UNL1        0.0000
   1175 C          18.8230    4.3074    6.6396 C.ar    1  UNL1        0.0000
   1176 C          17.8114    2.5801    8.5908 C.ar    1  UNL1        0.0000
   1177 C          22.1707    9.7262    4.6051 C.ar    1  UNL1        0.0000
   1178 C          14.2793   -2.9447    6.5282 C.2     1  UNL1        0.0000
   1179 C          24.7244    1.5883    0.0113 C.3    14  UNL14       0.0000
   1180 C          17.8484   13.1474    0.0887 C.2     1  UNL1        0.0000
   1181 C          22.6935    0.1954   12.9898 C.ar    1  UNL1        0.0000
   1182 C           9.2896    1.2718   13.0467 C.ar    1  UNL1        0.0000
   1183 C          19.3598    5.2245    5.6056 C.3     1  UNL1        0.0000
   1184 C          14.8644   -2.0334    7.5402 C.2     1  UNL1        0.0000
   1185 C          20.2253   -4.2016   13.1012 C.2     1  UNL1        0.0000
   1186 C          17.8054   11.7116    0.0497 C.2     1  UNL1        0.0000
   1187 C          21.4182   -0.4663   13.0430 C.3     1  UNL1        0.0000
   1188 C          10.6768    1.7347   13.0640 C.3     1  UNL1        0.0000
   1189 C          17.4922    4.4426    7.0787 C.ar    1  UNL1        0.0000
   1190 C          19.1346    2.4368    8.1546 C.ar    1  UNL1        0.0000
   1191 C          21.4334   10.8276    5.0587 C.ar    1  UNL1        0.0000
   1192 C           7.9906   10.3196    6.0734 C.ar    1  UNL1        0.0000
   1193 C          24.7939    0.9195    1.2398 C.2    14  UNL14       0.0000
   1194 C          13.5013    6.6153   11.9630 C.ar    1  UNL1        0.0000
   1195 C          11.6488    7.7305    1.1102 C.2    11  UNL11       0.0000
   1196 C           8.6580    1.0220   11.8218 C.ar    1  UNL1        0.0000
   1197 C          23.4506    9.4696    5.1127 C.ar    1  UNL1        0.0000
   1198 C          29.0005   -2.6946    6.0174 C.3     1  UNL1        0.0000
   1199 C          19.6420    3.2980    7.1812 C.ar    1  UNL1        0.0000
   1200 C          16.9899    3.5787    8.0529 C.ar    1  UNL1        0.0000
   1201 C          23.3711    0.4896   11.7534 C.ar    1  UNL1        0.0000
   1202 C          12.9202    8.2550    1.1525 C.2    11  UNL11       0.0000
   1203 C          20.4474   -6.3885   11.9106 C.3     1  UNL1        0.0000
   1204 C          24.8648   -0.4796    1.3189 C.2    14  UNL14       0.0000
   1205 N          24.9476   -1.0777    2.5559 N.pl3  14  UNL14       0.0000
   1206 N          22.7919    0.2882   10.5174 N.pl3   1  UNL1        0.0000
   1207 N          24.0106    4.7573    7.6391 N.pl3   1  UNL1        0.0000
   1208 N          22.4280   -4.0420    9.2844 N.pl3   1  UNL1        0.0000
   1209 O          23.2439    5.0226    5.0765 O.3     1  UNL1        0.0000
   1210 O          12.9554    1.4237    8.0200 O.3     1  UNL1        0.0000
   1211 O          20.3546   -2.4564    9.6957 O.3     1  UNL1        0.0000
   1212 O          16.4354    9.8719    3.4226 O.3     1  UNL1        0.0000
   1213 O          17.3284    8.5131    5.0021 O.3     1  UNL1        0.0000
   1214 O          18.7861   -2.2647    8.0781 O.3     1  UNL1        0.0000
   1215 O          24.8336    4.7557    3.4898 O.3     1  UNL1        0.0000
   1216 O          12.1056    2.7798    9.6244 O.3     1  UNL1        0.0000
   1217 O          22.1661    4.4091    2.5052 O.3     1  UNL1        0.0000
   1218 O          14.6415    1.9937   10.1096 O.3     1  UNL1        0.0000
   1219 O          23.0272    6.7272    2.9532 O.3     1  UNL1        0.0000
   1220 O          12.9532    0.2085   10.6096 O.3     1  UNL1        0.0000
   1221 O          17.6690   -2.8372   10.6743 O.3     1  UNL1        0.0000
   1222 O          18.9788    9.1219    2.9093 O.3     1  UNL1        0.0000
   1223 O          18.5410   -0.5433   10.2080 O.3     1  UNL1        0.0000
   1224 O          17.3319    7.3070    2.3989 O.3     1  UNL1        0.0000
   1225 O          20.5845    5.0877    5.2443 O.3     1  UNL1        0.0000
   1226 O          14.1732   -1.0225    7.9235 O.2     1  UNL1        0.0000
   1227 O          20.0758   -3.6099   11.9620 O.2     1  UNL1        0.0000
   1228 O          17.7529   11.0064    1.1444 O.2     1  UNL1        0.0000
   1229 O          20.7803   -0.7955   11.9563 O.3     1  UNL1        0.0000
   1230 O          15.5819    9.0940    1.0941 O.3     1  UNL1        0.0000
   1231 O          16.0383   -2.2879    7.9912 O.2     1  UNL1        0.0000
   1232 O          18.5837    6.1196    5.1176 O.3     1  UNL1        0.0000
   1233 O          25.2086    6.4527    1.0833 O.3     1  UNL1        0.0000
   1234 O          11.2612    1.9890   11.9440 O.3     1  UNL1        0.0000
   1235 O          24.5095    3.6723    1.1133 O.3     1  UNL1        0.0000
   1236 O          13.4665    3.8491   12.0151 O.3     1  UNL1        0.0000
   1237 O          20.2785    6.7356    3.0197 O.3     1  UNL1        0.0000
   1238 O          15.8624   -0.4361   10.0169 O.3     1  UNL1        0.0000
   1239 O          22.7573    5.6001    0.0716 O.3     1  UNL1        0.0000
   1240 O          13.7711    1.3023   13.0448 O.3     1  UNL1        0.0000
   1241 TI          8.8285   -5.1237   24.3754 Ti      1  UNL1        0.0000
   1242 TI         19.4996   -1.8559   14.9547 Ti      1  UNL1        0.0000
   1243 TI         13.0495   -8.9127   22.5273 Ti      1  UNL1        0.0000
   1244 TI         14.2085    0.3034   16.7587 Ti      1  UNL1        0.0000
   1245 TI         13.1415    1.9482   14.8622 Ti      1  UNL1        0.0000
   1246 TI         14.9563   -9.1035   24.4698 Ti      1  UNL1        0.0000
   1247 TI          9.8270   -6.8232   22.4763 Ti      1  UNL1        0.0000
   1248 TI         17.5128   -1.6250   16.8136 Ti      1  UNL1        0.0000
   1249 H          15.4438   -5.5865   21.6937 H       1  UNL1        0.0000
   1250 H           4.6720    2.9036   19.5885 H       1  UNL1        0.0000
   1251 H          16.1284    3.7715   17.7606 H       1  UNL1        0.0000
   1252 H           9.1932   -1.2112   24.1586 H       1  UNL1        0.0000
   1253 H          20.4456   -5.7318   15.2654 H       1  UNL1        0.0000
   1254 H           4.8953   -6.0173   24.0139 H       1  UNL1        0.0000
   1255 H          22.8110    0.2647   15.1394 H       1  UNL1        0.0000
   1256 H          16.0696  -13.1011   24.0728 H       1  UNL1        0.0000
   1257 H           9.1078    1.2170   15.2060 H       1  UNL1        0.0000
   1258 H          16.3538   -4.0350   19.9372 H       1  UNL1        0.0000
   1259 H          11.6516   -3.5688   21.5163 H       1  UNL1        0.0000
   1260 H          24.1377   -9.0674   19.4887 H       1  UNL1        0.0000
   1261 H           9.3696   -6.9073   26.0944 H       1  UNL1        0.0000
   1262 H          17.6241   -2.1617   13.2649 H       1  UNL1        0.0000
   1263 H          15.4583   -9.7458   18.9550 H       1  UNL1        0.0000
   1264 H          12.4424    2.0750   20.3897 H       1  UNL1        0.0000
   1265 H           5.6369   -3.5780   22.1477 H       1  UNL1        0.0000
   1266 H          22.3381   -3.8458   17.2425 H       1  UNL1        0.0000
   1267 H           7.9683   -4.9405   18.7991 H       1  UNL1        0.0000
   1268 H           9.9929    3.6642   17.2352 H       1  UNL1        0.0000
   1269 H          13.4303    5.0618   15.7198 H       1  UNL1        0.0000
   1270 H          20.3649   -7.7564   16.4660 H       1  UNL1        0.0000
   1271 H          16.3035    0.0582   15.4080 H       1  UNL1        0.0000
   1272 H          11.9123   -7.1046   23.8294 H       1  UNL1        0.0000
   1273 H          19.1120   -7.0204   22.8387 H       1  UNL1        0.0000
   1274 H          17.6523   -7.5417   23.5936 H       1  UNL1        0.0000
   1275 H          19.5253   -2.5682   21.7428 H       1  UNL1        0.0000
   1276 H          18.9344   -2.2277   20.1279 H       1  UNL1        0.0000
   1277 H          18.7949  -11.9890   22.6444 H       1  UNL1        0.0000
   1278 H          17.4808  -10.9342   23.1105 H       1  UNL1        0.0000
   1279 H          13.1083   -5.3276   22.4663 H       1  UNL1        0.0000
   1280 H          12.5606   -2.0122   19.7588 H       1  UNL1        0.0000
   1281 H          17.4378    1.8302   16.9556 H       1  UNL1        0.0000
   1282 H          19.6959    1.3708   17.8549 H       1  UNL1        0.0000
   1283 C          20.1191   -2.5800   17.8139 C.3     1  UNL1        0.0000
   1284 C           7.8435   -4.8925   21.5341 C.3     1  UNL1        0.0000
   1285 C          15.6584   -9.8318   21.5868 C.3     1  UNL1        0.0000
   1286 C          12.2104    2.2042   17.7315 C.3     1  UNL1        0.0000
   1287 C          21.0411   -3.1540   18.8033 C.ar    1  UNL1        0.0000
   1288 C           6.8850   -4.2991   20.5632 C.ar    1  UNL1        0.0000
   1289 C          16.6141  -10.4119   20.6336 C.2     1  UNL1        0.0000
   1290 C          11.3042    2.8184   18.7372 C.ar    1  UNL1        0.0000
   1291 C          20.7978   -3.0894   20.2112 C.ar    1  UNL1        0.0000
   1292 C           7.0977   -4.4098   19.1738 C.ar    1  UNL1        0.0000
   1293 C          17.7718  -11.1330   21.0793 C.2     1  UNL1        0.0000
   1294 C          10.1807    3.5533   18.2994 C.ar    1  UNL1        0.0000
   1295 C          11.5720    2.6550   20.0904 C.ar    1  UNL1        0.0000
   1296 C          16.3542  -10.2868   19.2512 C.3     1  UNL1        0.0000
   1297 C          22.1958   -3.8125   18.3203 C.ar    1  UNL1        0.0000
   1298 C           5.7642   -3.6460   21.0689 C.ar    1  UNL1        0.0000
   1299 C          14.5105   -2.9318   19.7498 C.ar    1  UNL1        0.0000
   1300 C          13.4989   -4.6591   21.7011 C.ar    1  UNL1        0.0000
   1301 C          17.8582    2.4870   17.7154 C.ar    1  UNL1        0.0000
   1302 C           9.9668  -10.1839   19.6385 C.2     1  UNL1        0.0000
   1303 C          20.4119   -5.6509   13.1216 C.2     1  UNL1        0.0000
   1304 C          13.5359    5.9082   13.1989 C.ar    1  UNL1        0.0000
   1305 C          18.3809   -7.0438   26.1001 C.ar    1  UNL1        0.0000
   1306 C           4.9771   -5.9674   26.1570 C.ar    1  UNL1        0.0000
   1307 C          15.0473   -2.0147   18.7159 C.3     1  UNL1        0.0000
   1308 C          10.5519   -9.2726   20.6505 C.2     1  UNL1        0.0000
   1309 C          15.9128  -11.4408   26.2114 C.2     1  UNL1        0.0000
   1310 C          13.4929    4.4724   13.1600 C.3     1  UNL1        0.0000
   1311 C          17.1056   -7.7055   26.1533 C.3     1  UNL1        0.0000
   1312 C           6.3643   -5.5045   26.1743 C.3     1  UNL1        0.0000
   1313 C          13.1797   -2.7966   20.1890 C.ar    1  UNL1        0.0000
   1314 C          14.8220   -4.8024   21.2649 C.ar    1  UNL1        0.0000
   1315 C          17.1208    3.5884   18.1689 C.ar    1  UNL1        0.0000
   1316 C           3.6780    3.0804   19.1837 C.ar    1  UNL1        0.0000
   1317 C          20.4814   -6.3197   14.3501 C.2     1  UNL1        0.0000
   1318 C           9.1887   -0.6239   25.0733 C.ar    1  UNL1        0.0000
   1319 C           7.3363    0.4913   14.2205 C.ar    1  UNL1        0.0000
   1320 C           4.3455   -6.2172   24.9321 C.ar    1  UNL1        0.0000
   1321 C          19.1381    2.2304   18.2230 C.ar    1  UNL1        0.0000
   1322 C          24.6880   -9.9338   19.1277 C.3     1  UNL1        0.0000
   1323 C          15.3294   -3.9412   20.2915 C.ar    1  UNL1        0.0000
   1324 C          12.6774   -3.6605   21.1632 C.ar    1  UNL1        0.0000
   1325 C          19.0586   -6.7496   24.8637 C.ar    1  UNL1        0.0000
   1326 C           8.6077    1.0158   14.2627 C.ar    1  UNL1        0.0000
   1327 C          16.1348  -13.6277   25.0209 C.3     1  UNL1        0.0000
   1328 C          20.5523   -7.7188   14.4292 C.2     1  UNL1        0.0000
   1329 N          20.6351   -8.3169   15.6662 N.pl3   1  UNL1        0.0000
   1330 N          18.4793   -6.9510   23.6277 N.pl3   1  UNL1        0.0000
   1331 N          19.6980   -2.4819   20.7494 N.pl3   1  UNL1        0.0000
   1332 N          18.1155  -11.2812   22.3946 N.pl3   1  UNL1        0.0000
   1333 O          18.9314   -2.2166   18.1868 O.3     1  UNL1        0.0000
   1334 O           8.6429   -5.8155   21.1303 O.3     1  UNL1        0.0000
   1335 O          16.0421   -9.6956   22.8060 O.3     1  UNL1        0.0000
   1336 O          12.1229    2.6327   16.5329 O.3     1  UNL1        0.0000
   1337 O          13.0158    1.2739   18.1124 O.3     1  UNL1        0.0000
   1338 O          14.4736   -9.5039   21.1883 O.3     1  UNL1        0.0000
   1339 O          20.5211   -2.4835   16.6000 O.3     1  UNL1        0.0000
   1340 O           7.7931   -4.4594   22.7347 O.3     1  UNL1        0.0000
   1341 O          17.8535   -2.8301   15.6155 O.3     1  UNL1        0.0000
   1342 O          10.3289   -5.2455   23.2199 O.3     1  UNL1        0.0000
   1343 O          18.7146   -0.5120   16.0635 O.3     1  UNL1        0.0000
   1344 O           8.6406   -7.0307   23.7199 O.3     1  UNL1        0.0000
   1345 O          13.3565  -10.0764   23.7846 O.3     1  UNL1        0.0000
   1346 O          14.6663    1.8827   16.0195 O.3     1  UNL1        0.0000
   1347 O          14.2285   -7.7825   23.3183 O.3     1  UNL1        0.0000
   1348 O          13.0193    0.0678   15.5092 O.3     1  UNL1        0.0000
   1349 O          16.2719   -2.1515   18.3546 O.3     1  UNL1        0.0000
   1350 O           9.8607   -8.2617   21.0338 O.2     1  UNL1        0.0000
   1351 O          15.7632  -10.8492   25.0723 O.2     1  UNL1        0.0000
   1352 O          13.4404    3.7672   14.2546 O.3     1  UNL1        0.0000
   1353 O          16.4678   -8.0347   25.0666 O.3     1  UNL1        0.0000
   1354 O          11.2694    1.8548   14.2044 O.3     1  UNL1        0.0000
   1355 O          11.7258   -9.5271   21.1014 O.2     1  UNL1        0.0000
   1356 O          14.2711   -1.1196   18.2279 O.3     1  UNL1        0.0000
   1357 O          20.8960   -0.7865   14.1936 O.3     1  UNL1        0.0000
   1358 O           6.9487   -5.2502   25.0543 O.3     1  UNL1        0.0000
   1359 O          20.1970   -3.5669   14.2236 O.2     1  UNL1        0.0000
   1360 O           9.1539   -3.3901   25.1254 O.3     1  UNL1        0.0000
   1361 O          15.9660   -0.5036   16.1299 O.3     1  UNL1        0.0000
   1362 O          11.5498   -7.6753   23.1272 O.3     1  UNL1        0.0000
   1363 O          18.4448   -1.6391   13.1819 O.3     1  UNL1        0.0000
   1364 O           9.4586   -5.9369   26.1551 O.3     1  UNL1        0.0000
   1365 TI          4.5160  -12.3629   37.4857 Ti      1  UNL1        0.0000
   1366 TI         15.1870   -9.0951   28.0650 Ti      1  UNL1        0.0000
   1367 TI          8.7370  -16.1519   35.6375 Ti      1  UNL1        0.0000
   1368 TI          9.8960   -6.9358   29.8690 Ti      1  UNL1        0.0000
   1369 TI          8.8289   -5.2910   27.9725 Ti      1  UNL1        0.0000
   1370 TI         10.6438  -16.3427   37.5800 Ti      1  UNL1        0.0000
   1371 TI          5.5144  -14.0624   35.5866 Ti      1  UNL1        0.0000
   1372 TI         13.2002   -8.8642   29.9238 Ti      1  UNL1        0.0000
   1373 H          11.1312  -12.8257   34.8039 H       1  UNL1        0.0000
   1374 H           0.3595   -4.3356   32.6988 H       1  UNL1        0.0000
   1375 H          11.8158   -3.4677   30.8709 H       1  UNL1        0.0000
   1376 H           4.8807   -8.4504   37.2689 H      12  UNL12       0.0000
   1377 H          16.1331  -12.9710   28.3757 H       1  UNL1        0.0000
   1378 H           0.5827  -13.2565   37.1242 H       1  UNL1        0.0000
   1379 H          18.4984   -6.9745   28.2496 H       1  UNL1        0.0000
   1380 H          11.7570  -20.3403   37.1831 H      13  UNL13       0.0000
   1381 H           4.7953   -6.0222   28.3163 H       1  UNL1        0.0000
   1382 H          12.0412  -11.2742   33.0474 H       1  UNL1        0.0000
   1383 H           7.3390  -10.8080   34.6266 H       1  UNL1        0.0000
   1384 H          19.8252  -16.3066   32.5990 H       1  UNL1        0.0000
   1385 H           5.0571  -14.1465   39.2047 H       1  UNL1        0.0000
   1386 H          13.3116   -9.4009   26.3751 H       1  UNL1        0.0000
   1387 H          11.1457  -16.9850   32.0653 H       1  UNL1        0.0000
   1388 H           8.1299   -5.1642   33.5000 H       1  UNL1        0.0000
   1389 H           1.3244  -10.8172   35.2580 H       1  UNL1        0.0000
   1390 H          18.0255  -11.0850   30.3527 H       1  UNL1        0.0000
   1391 H           3.6558  -12.1797   31.9094 H       1  UNL1        0.0000
   1392 H           5.6803   -3.5750   30.3455 H       1  UNL1        0.0000
   1393 H           9.1177   -2.1774   28.8301 H       1  UNL1        0.0000
   1394 H          16.0523  -14.9956   29.5763 H       1  UNL1        0.0000
   1395 H          11.9909   -7.1810   28.5183 H       1  UNL1        0.0000
   1396 H           7.5998  -14.3438   36.9397 H       1  UNL1        0.0000
   1397 H          14.7995  -14.2596   35.9489 H       1  UNL1        0.0000
   1398 H          13.3398  -14.7809   36.7038 H       1  UNL1        0.0000
   1399 H          15.2128   -9.8074   34.8530 H       1  UNL1        0.0000
   1400 H          14.6219   -9.4669   33.2382 H       1  UNL1        0.0000
   1401 H          14.4824  -19.2282   35.7547 H       1  UNL1        0.0000
   1402 H          13.1683  -18.1734   36.2207 H       1  UNL1        0.0000
   1403 H           8.7958  -12.5668   35.5766 H       1  UNL1        0.0000
   1404 H           8.2481   -9.2514   32.8691 H       1  UNL1        0.0000
   1405 H          13.1252   -5.4090   30.0659 H       1  UNL1        0.0000
   1406 H          15.3833   -5.8684   30.9651 H       1  UNL1        0.0000
   1407 C          15.8065   -9.8192   30.9242 C.3     1  UNL1        0.0000
   1408 C           3.5310  -12.1317   34.6444 C.3     1  UNL1        0.0000
   1409 C          11.3458  -17.0710   34.6971 C.3     1  UNL1        0.0000
   1410 C           7.8978   -5.0350   30.8418 C.3     1  UNL1        0.0000
   1411 C          16.7286  -10.3932   31.9136 C.ar    1  UNL1        0.0000
   1412 C           2.5724  -11.5383   33.6734 C.ar    1  UNL1        0.0000
   1413 C          12.3016  -17.6511   33.7439 C.2     1  UNL1        0.0000
   1414 C           6.9917   -4.4208   31.8474 C.ar    1  UNL1        0.0000
   1415 C          16.4852  -10.3286   33.3215 C.ar    1  UNL1        0.0000
   1416 C           2.7851  -11.6490   32.2841 C.ar    1  UNL1        0.0000
   1417 C          13.4593  -18.3722   34.1896 C.2     1  UNL1        0.0000
   1418 C           5.8682   -3.6859   31.4097 C.ar    1  UNL1        0.0000
   1419 C           7.2595   -4.5842   33.2006 C.ar    1  UNL1        0.0000
   1420 C          12.0417  -17.5261   32.3615 C.3     1  UNL1        0.0000
   1421 C          17.8832  -11.0517   31.4306 C.ar    1  UNL1        0.0000
   1422 C           1.4517  -10.8852   34.1792 C.ar    1  UNL1        0.0000
   1423 C          10.1979  -10.1710   32.8601 C.ar    1  UNL1        0.0000
   1424 C           9.1864  -11.8983   34.8114 C.ar    1  UNL1        0.0000
   1425 C          13.5457   -4.7522   30.8257 C.ar    1  UNL1        0.0000
   1426 C           5.6543  -17.4231   32.7488 C.2     1  UNL1        0.0000
   1427 C          16.0994  -12.8901   26.2319 C.2     1  UNL1        0.0000
   1428 C           9.2233   -1.3310   26.3092 C.ar    1  UNL1        0.0000
   1429 C          14.0684  -14.2830   39.2104 C.2     1  UNL1        0.0000
   1430 C           0.6646  -13.2066   39.2673 C.2     1  UNL1        0.0000
   1431 C          10.7348   -9.2539   31.8261 C.3     1  UNL1        0.0000
   1432 C           6.2393  -16.5118   33.7608 C.2     1  UNL1        0.0000
   1433 C          11.6003  -18.6800   39.3217 C.3     1  UNL1        0.0000
   1434 C           9.1803   -2.7668   26.2702 C.3     1  UNL1        0.0000
   1435 C          12.7931  -14.9447   39.2636 C.2     1  UNL1        0.0000
   1436 C           2.0517  -12.7437   39.2845 C.2     1  UNL1        0.0000
   1437 C           8.8671  -10.0358   33.2993 C.ar    1  UNL1        0.0000
   1438 C          10.5095  -12.0416   34.3751 C.ar    1  UNL1        0.0000
   1439 C          12.8083   -3.6508   31.2792 C.ar    1  UNL1        0.0000
   1440 C          -0.6345   -4.1588   32.2939 C.ar    1  UNL1        0.0000
   1441 C          16.1689  -13.5589   27.4604 C.2     1  UNL1        0.0000
   1442 C           4.8762   -7.8631   38.1835 C.2    12  UNL12       0.0000
   1443 C           3.0238   -6.7479   27.3308 C.ar    1  UNL1        0.0000
   1444 C           0.0330  -13.4564   38.0424 C.2     1  UNL1        0.0000
   1445 C          14.8256   -5.0088   31.3332 C.ar    1  UNL1        0.0000
   1446 C          20.3754  -17.1730   32.2379 C.3     1  UNL1        0.0000
   1447 C          11.0169  -11.1804   33.4017 C.ar    1  UNL1        0.0000
   1448 C           8.3649  -10.8997   34.2734 C.ar    1  UNL1        0.0000
   1449 C          14.7460  -13.9888   37.9739 C.2     1  UNL1        0.0000
   1450 C           4.2951   -6.2234   27.3730 C.ar    1  UNL1        0.0000
   1451 C          11.8223  -20.8669   38.1312 C.3    15  UNL15       0.0000
   1452 C          16.2398  -14.9580   27.5394 C.2     1  UNL1        0.0000
   1453 N          16.3226  -15.5561   28.7764 N.pl3   1  UNL1        0.0000
   1454 N          14.1668  -14.1902   36.7380 N.pl3   1  UNL1        0.0000
   1455 N          15.3855   -9.7211   33.8596 N.pl3   1  UNL1        0.0000
   1456 N          13.8030  -18.5204   35.5049 N.pl3   1  UNL1        0.0000
   1457 O          14.6189   -9.4558   31.2971 O.3     1  UNL1        0.0000
   1458 O           4.3304  -13.0547   34.2406 O.3     1  UNL1        0.0000
   1459 O          11.7296  -16.9348   35.9163 O.3     1  UNL1        0.0000
   1460 O           7.8103   -4.6065   29.6432 O.3     1  UNL1        0.0000
   1461 O           8.7033   -5.9653   31.2227 O.3     1  UNL1        0.0000
   1462 O          10.1611  -16.7431   34.2986 O.3     1  UNL1        0.0000
   1463 O          16.2086   -9.7227   29.7103 O.3     1  UNL1        0.0000
   1464 O           3.4805  -11.6986   35.8450 O.3     1  UNL1        0.0000
   1465 O          13.5410  -10.0693   28.7258 O.3     1  UNL1        0.0000
   1466 O           6.0164  -12.4847   36.3302 O.3     1  UNL1        0.0000
   1467 O          14.4021   -7.7512   29.1737 O.3     1  UNL1        0.0000
   1468 O           4.3281  -14.2699   36.8302 O.3     1  UNL1        0.0000
   1469 O           9.0439  -17.3156   36.8949 O.3     1  UNL1        0.0000
   1470 O          10.3537   -5.3565   29.1298 O.3     1  UNL1        0.0000
   1471 O           9.9160  -15.0217   36.4286 O.3     1  UNL1        0.0000
   1472 O           8.7068   -7.1714   28.6194 O.3     1  UNL1        0.0000
   1473 O          11.9594   -9.3907   31.4649 O.3     1  UNL1        0.0000
   1474 O           5.5482  -15.5009   34.1441 O.2     1  UNL1        0.0000
   1475 O          11.4507  -18.0884   38.1826 O.3     1  UNL1        0.0000
   1476 O           9.1278   -3.4720   27.3649 O.3     1  UNL1        0.0000
   1477 O          12.1553  -15.2739   38.1769 O.2     1  UNL1        0.0000
   1478 O           6.9568   -5.3844   27.3147 O.3     1  UNL1        0.0000
   1479 O           7.4132  -16.7663   34.2117 O.2     1  UNL1        0.0000
   1480 O           9.9586   -8.3588   31.3382 O.3     1  UNL1        0.0000
   1481 O          16.5835   -8.0257   27.3039 O.3     1  UNL1        0.0000
   1482 O           2.6362  -12.4894   38.1645 O.2     1  UNL1        0.0000
   1483 O          15.8845  -10.8061   27.3338 O.2     1  UNL1        0.0000
   1484 O           4.8414  -10.6293   38.2357 O.3     1  UNL1        0.0000
   1485 O          11.6535   -7.7428   29.2402 O.3     1  UNL1        0.0000
   1486 O           7.2373  -14.9145   36.2375 O.3     1  UNL1        0.0000
   1487 O          14.1323   -8.8783   26.2921 O.3     1  UNL1        0.0000
   1488 O           5.1460  -13.1761   39.2653 O.3     1  UNL1        0.0000
   1489 TI          6.1191   16.4923   11.2652 Ti      1  UNL1        0.0000
   1490 TI         16.7902   19.7601    1.8444 Ti      1  UNL1        0.0000
   1491 TI         10.3401   12.7033    9.4170 Ti      1  UNL1        0.0000
   1492 TI         11.4991   21.9194    3.6484 Ti      1  UNL1        0.0000
   1493 TI         10.4321   23.5642    1.7520 Ti      1  UNL1        0.0000
   1494 TI         12.2469   12.5125   11.3595 Ti      1  UNL1        0.0000
   1495 TI          7.1175   14.7928    9.3660 Ti      1  UNL1        0.0000
   1496 TI         14.8034   19.9910    3.7033 Ti      1  UNL1        0.0000
   1497 H          12.7344   16.0295    8.5834 H       1  UNL1        0.0000
   1498 H           1.9626   24.5196    6.4782 H       1  UNL1        0.0000
   1499 H          13.4190   25.3875    4.6503 H       1  UNL1        0.0000
   1500 H           6.4838   20.4048   11.0484 H       1  UNL1        0.0000
   1501 H          17.7362   15.8842    2.1552 H       1  UNL1        0.0000
   1502 H           2.1859   15.5988   10.9036 H       1  UNL1        0.0000
   1503 H          20.1016   21.8807    2.0291 H      24  UNL24       0.0000
   1504 H          13.3602    8.5149   10.9625 H       1  UNL1        0.0000
   1505 H           6.3984   22.8330    2.0957 H      14  UNL14       0.0000
   1506 H          13.6444   17.5810    6.8269 H       1  UNL1        0.0000
   1507 H           8.9422   18.0472    8.4060 H       1  UNL1        0.0000
   1508 H          21.4283   12.5486    6.3785 H       1  UNL1        0.0000
   1509 H           6.6602   14.7087   12.9842 H       1  UNL1        0.0000
   1510 H          14.9147   19.4543    0.1546 H       1  UNL1        0.0000
   1511 H          12.7489   11.8702    5.8447 H       1  UNL1        0.0000
   1512 H           9.7330   23.6910    7.2795 H       1  UNL1        0.0000
   1513 H           2.9275   18.0380    9.0374 H       1  UNL1        0.0000
   1514 H          19.6286   17.7702    4.1322 H       1  UNL1        0.0000
   1515 H           5.2589   16.6756    5.6889 H       1  UNL1        0.0000
   1516 H           7.2835   25.2802    4.1249 H       1  UNL1        0.0000
   1517 H          10.7209   26.6778    2.6096 H       1  UNL1        0.0000
   1518 H          17.6555   13.8596    3.3557 H       1  UNL1        0.0000
   1519 H          13.5941   21.6742    2.2978 H       1  UNL1        0.0000
   1520 H           9.2029   14.5114   10.7192 H       1  UNL1        0.0000
   1521 H          16.4026   14.5956    9.7284 H       1  UNL1        0.0000
   1522 H          14.9429   14.0743   10.4833 H       1  UNL1        0.0000
   1523 H          16.8159   19.0478    8.6325 H       1  UNL1        0.0000
   1524 H          16.2250   19.3883    7.0176 H       1  UNL1        0.0000
   1525 H          16.0855    9.6270    9.5342 H       1  UNL1        0.0000
   1526 H          14.7714   10.6818   10.0002 H       1  UNL1        0.0000
   1527 H          10.3989   16.2884    9.3560 H       1  UNL1        0.0000
   1528 H           9.8512   19.6038    6.6485 H       1  UNL1        0.0000
   1529 H          14.7284   23.4462    3.8453 H       1  UNL1        0.0000
   1530 H          16.9865   22.9868    4.7446 H       1  UNL1        0.0000
   1531 C          17.4097   19.0360    4.7037 C.3     1  UNL1        0.0000
   1532 C           5.1341   16.7235    8.4239 C.3     1  UNL1        0.0000
   1533 C          12.9490   11.7842    8.4766 C.3     1  UNL1        0.0000
   1534 C           9.5010   23.8202    4.6213 C.3     1  UNL1        0.0000
   1535 C          18.3317   18.4620    5.6930 C.ar    1  UNL1        0.0000
   1536 C           4.1756   17.3169    7.4529 C.ar    1  UNL1        0.0000
   1537 C          13.9047   11.2041    7.5233 C.ar    1  UNL1        0.0000
   1538 C           8.5948   24.4344    5.6269 C.ar    1  UNL1        0.0000
   1539 C          18.0884   18.5266    7.1009 C.ar    1  UNL1        0.0000
   1540 C           4.3882   17.2062    6.0635 C.ar    1  UNL1        0.0000
   1541 C          15.0624   10.4830    7.9691 C.ar    1  UNL1        0.0000
   1542 C           7.4713   25.1693    5.1891 C.ar    1  UNL1        0.0000
   1543 C           8.8626   24.2710    6.9801 C.ar    1  UNL1        0.0000
   1544 C          13.6448   11.3292    6.1410 C.ar    1  UNL1        0.0000
   1545 C          19.4864   17.8035    5.2100 C.ar    1  UNL1        0.0000
   1546 C           3.0548   17.9700    7.9586 C.ar    1  UNL1        0.0000
   1547 C          11.8011   18.6842    6.6396 C.ar    1  UNL1        0.0000
   1548 C          10.7895   16.9569    8.5908 C.ar    1  UNL1        0.0000
   1549 C          15.1488   24.1031    4.6051 C.ar    1  UNL1        0.0000
   1550 C           7.2574   11.4321    6.5282 C.ar    1  UNL1        0.0000
   1551 C          17.7025   15.9651    0.0113 C.3     1  UNL1        0.0000
   1552 C          10.8265   27.5243    0.0887 C.2     1  UNL1        0.0000
   1553 C          15.6715   14.5722   12.9898 C.ar    1  UNL1        0.0000
   1554 C           2.2677   15.6486   13.0467 C.ar    1  UNL1        0.0000
   1555 C          12.3379   19.6013    5.6056 C.3     1  UNL1        0.0000
   1556 C           7.8425   12.3434    7.5402 C.3     1  UNL1        0.0000
   1557 C          13.2034   10.1752   13.1012 C.3     1  UNL1        0.0000
   1558 C          10.7835   26.0884    0.0497 C.2     1  UNL1        0.0000
   1559 C          14.3962   13.9105   13.0430 C.3     1  UNL1        0.0000
   1560 C           3.6549   16.1115   13.0640 C.3     1  UNL1        0.0000
   1561 C          10.4703   18.8194    7.0787 C.ar    1  UNL1        0.0000
   1562 C          12.1126   16.8136    8.1546 C.ar    1  UNL1        0.0000
   1563 C          14.4114   25.2044    5.0587 C.ar    1  UNL1        0.0000
   1564 C           0.9686   24.6964    6.0734 C.ar    1  UNL1        0.0000
   1565 C          17.7720   15.2963    1.2398 C.2     1  UNL1        0.0000
   1566 C           6.4793   20.9921   11.9630 C.ar    1  UNL1        0.0000
   1567 C           4.6269   22.1073    1.1102 C.2    14  UNL14       0.0000
   1568 C           1.6361   15.3988   11.8218 C.ar    1  UNL1        0.0000
   1569 C          16.4287   23.8465    5.1127 C.ar    1  UNL1        0.0000
   1570 C          21.9786   11.6822    6.0174 C.ar    1  UNL1        0.0000
   1571 C          12.6200   17.6748    7.1812 C.ar    1  UNL1        0.0000
   1572 C           9.9680   17.9555    8.0529 C.ar    1  UNL1        0.0000
   1573 C          16.3492   14.8664   11.7534 C.ar    1  UNL1        0.0000
   1574 C           5.8983   22.6318    1.1525 C.2    14  UNL14       0.0000
   1575 C          13.4254    7.9883   11.9106 C.ar    1  UNL1        0.0000
   1576 C          17.8429   13.8972    1.3189 C.2     1  UNL1        0.0000
   1577 N          17.9257   13.2992    2.5559 N.pl3   1  UNL1        0.0000
   1578 N          15.7699   14.6650   10.5174 N.pl3   1  UNL1        0.0000
   1579 N          16.9886   19.1342    7.6391 N.pl3   1  UNL1        0.0000
   1580 N          15.4061   10.3348    9.2844 N.pl3   1  UNL1        0.0000
   1581 O          16.2220   19.3994    5.0765 O.3     1  UNL1        0.0000
   1582 O           5.9335   15.8005    8.0200 O.3     1  UNL1        0.0000
   1583 O          13.3327   11.9204    9.6957 O.3     1  UNL1        0.0000
   1584 O           9.4135   24.2487    3.4226 O.3     1  UNL1        0.0000
   1585 O          10.3064   22.8899    5.0021 O.3     1  UNL1        0.0000
   1586 O          11.7642   12.1121    8.0781 O.3     1  UNL1        0.0000
   1587 O          17.8117   19.1325    3.4898 O.3     1  UNL1        0.0000
   1588 O           5.0837   17.1566    9.6244 O.3     1  UNL1        0.0000
   1589 O          15.1441   18.7859    2.5052 O.3     1  UNL1        0.0000
   1590 O           7.6195   16.3706   10.1096 O.3     1  UNL1        0.0000
   1591 O          16.0052   21.1040    2.9532 O.3     1  UNL1        0.0000
   1592 O           5.9312   14.5853   10.6096 O.3     1  UNL1        0.0000
   1593 O          10.6471   11.5396   10.6743 O.3     1  UNL1        0.0000
   1594 O          11.9569   23.4987    2.9093 O.3     1  UNL1        0.0000
   1595 O          11.5191   13.8335   10.2080 O.3     1  UNL1        0.0000
   1596 O          10.3099   21.6838    2.3989 O.3     1  UNL1        0.0000
   1597 O          13.5625   19.4645    5.2443 O.3     1  UNL1        0.0000
   1598 O           7.1513   13.3543    7.9235 O.3     1  UNL1        0.0000
   1599 O          13.0538   10.7669   11.9620 O.3     1  UNL1        0.0000
   1600 O          10.7310   25.3832    1.1444 O.2     1  UNL1        0.0000
   1601 O          13.7584   13.5813   11.9563 O.3     1  UNL1        0.0000
   1602 O           8.5600   23.4708    1.0941 O.3     1  UNL1        0.0000
   1603 O           9.0164   12.0889    7.9912 O.3     1  UNL1        0.0000
   1604 O          11.5617   20.4964    5.1176 O.3     1  UNL1        0.0000
   1605 O          18.1866   20.8295    1.0833 O.3     1  UNL1        0.0000
   1606 O           4.2393   16.3658   11.9440 O.3     1  UNL1        0.0000
   1607 O          17.4876   18.0491    1.1133 O.3     1  UNL1        0.0000
   1608 O           6.4445   18.2259   12.0151 O.3     1  UNL1        0.0000
   1609 O          13.2566   21.1124    3.0197 O.3     1  UNL1        0.0000
   1610 O           8.8404   13.9407   10.0169 O.3     1  UNL1        0.0000
   1611 O          15.7354   19.9769    0.0716 O.3     1  UNL1        0.0000
   1612 O           6.7492   15.6791   13.0448 O.3     1  UNL1        0.0000
   1613 TI          1.8066    9.2531   24.3754 Ti      1  UNL1        0.0000
   1614 TI         12.4776   12.5209   14.9547 Ti      1  UNL1        0.0000
   1615 TI          6.0275    5.4641   22.5273 Ti      1  UNL1        0.0000
   1616 TI          7.1866   14.6802   16.7587 Ti      1  UNL1        0.0000
   1617 TI          6.1195   16.3250   14.8622 Ti      1  UNL1        0.0000
   1618 TI          7.9344    5.2733   24.4698 Ti      1  UNL1        0.0000
   1619 TI          2.8050    7.5536   22.4763 Ti      1  UNL1        0.0000
   1620 TI         10.4908   12.7518   16.8136 Ti      1  UNL1        0.0000
   1621 H           8.4218    8.7903   21.6937 H       1  UNL1        0.0000
   1622 H          -2.3499   17.2804   19.5885 H       1  UNL1        0.0000
   1623 H           9.1064   18.1483   17.7606 H       1  UNL1        0.0000
   1624 H           2.1712   13.1656   24.1586 H       1  UNL1        0.0000
   1625 H          13.4237    8.6450   15.2654 H       1  UNL1        0.0000
   1626 H          -2.1267    8.3596   24.0139 H       1  UNL1        0.0000
   1627 H          15.7890   14.6415   15.1394 H       1  UNL1        0.0000
   1628 H           9.0476    1.2757   24.0728 H       1  UNL1        0.0000
   1629 H           2.0859   15.5938   15.2060 H       1  UNL1        0.0000
   1630 H           9.3318   10.3418   19.9372 H       1  UNL1        0.0000
   1631 H           4.6296   10.8080   21.5163 H       1  UNL1        0.0000
   1632 H          17.1158    5.3094   19.4887 H       1  UNL1        0.0000
   1633 H           2.3477    7.4695   26.0944 H       1  UNL1        0.0000
   1634 H          10.6022   12.2151   13.2649 H       1  UNL1        0.0000
   1635 H           8.4363    4.6310   18.9550 H       1  UNL1        0.0000
   1636 H           5.4205   16.4518   20.3897 H       1  UNL1        0.0000
   1637 H          -1.3850   10.7988   22.1477 H       1  UNL1        0.0000
   1638 H          15.3161   10.5310   17.2425 H       1  UNL1        0.0000
   1639 H           0.9464    9.4364   18.7991 H       1  UNL1        0.0000
   1640 H           2.9709   18.0410   17.2352 H       1  UNL1        0.0000
   1641 H           6.4083   19.4386   15.7198 H       1  UNL1        0.0000
   1642 H          13.3429    6.6204   16.4660 H       1  UNL1        0.0000
   1643 H           9.2815   14.4350   15.4080 H       1  UNL1        0.0000
   1644 H           4.8904    7.2722   23.8294 H       1  UNL1        0.0000
   1645 H          12.0901    7.3564   22.8387 H       1  UNL1        0.0000
   1646 H          10.6304    6.8351   23.5936 H       1  UNL1        0.0000
   1647 H          12.5034   11.8086   21.7428 H       1  UNL1        0.0000
   1648 H          11.9125   12.1491   20.1279 H       1  UNL1        0.0000
   1649 H          11.7730    2.3878   22.6444 H       1  UNL1        0.0000
   1650 H          10.4589    3.4426   23.1105 H       1  UNL1        0.0000
   1651 H           6.0864    9.0492   22.4663 H       1  UNL1        0.0000
   1652 H           5.5387   12.3646   19.7588 H       1  UNL1        0.0000
   1653 H          10.4158   16.2070   16.9556 H       1  UNL1        0.0000
   1654 H          12.6739   15.7476   17.8549 H       1  UNL1        0.0000
   1655 C          13.0971   11.7968   17.8139 C.3     1  UNL1        0.0000
   1656 C           0.8216    9.4843   21.5341 C.3     1  UNL1        0.0000
   1657 C           8.6364    4.5450   21.5868 C.3     1  UNL1        0.0000
   1658 C           5.1884   16.5810   17.7315 C.3     1  UNL1        0.0000
   1659 C          14.0192   11.2228   18.8033 C.ar    1  UNL1        0.0000
   1660 C          -0.1370   10.0777   20.5632 C.ar    1  UNL1        0.0000
   1661 C           9.5921    3.9649   20.6336 C.ar    1  UNL1        0.0000
   1662 C           4.2822   17.1952   18.7372 C.ar    1  UNL1        0.0000
   1663 C          13.7758   11.2874   20.2112 C.ar    1  UNL1        0.0000
   1664 C           0.0757    9.9670   19.1738 C.ar    1  UNL1        0.0000
   1665 C          10.7499    3.2438   21.0793 C.ar    1  UNL1        0.0000
   1666 C           3.1588   17.9301   18.2994 C.ar    1  UNL1        0.0000
   1667 C           4.5501   17.0318   20.0904 C.ar    1  UNL1        0.0000
   1668 C           9.3322    4.0900   19.2512 C.ar    1  UNL1        0.0000
   1669 C          15.1738   10.5643   18.3203 C.ar    1  UNL1        0.0000
   1670 C          -1.2577   10.7308   21.0689 C.ar    1  UNL1        0.0000
   1671 C           7.4885   11.4450   19.7498 C.ar    1  UNL1        0.0000
   1672 C           6.4770    9.7177   21.7011 C.ar    1  UNL1        0.0000
   1673 C          10.8363   16.8639   17.7154 C.ar    1  UNL1        0.0000
   1674 C           2.9449    4.1929   19.6385 C.ar    1  UNL1        0.0000
   1675 C          13.3900    8.7259   13.1216 C.ar    1  UNL1        0.0000
   1676 C           6.5139   20.2851   13.1989 C.ar    1  UNL1        0.0000
   1677 C          11.3590    7.3330   26.1001 C.ar    1  UNL1        0.0000
   1678 C          -2.0448    8.4094   26.1570 C.ar    1  UNL1        0.0000
   1679 C           8.0254   12.3621   18.7159 C.3     1  UNL1        0.0000
   1680 C           3.5299    5.1042   20.6505 C.3     1  UNL1        0.0000
   1681 C           8.8909    2.9360   26.2114 C.3     1  UNL1        0.0000
   1682 C           6.4709   18.8492   13.1600 C.3     1  UNL1        0.0000
   1683 C          10.0837    6.6713   26.1533 C.3     1  UNL1        0.0000
   1684 C          -0.6577    8.8723   26.1743 C.3     1  UNL1        0.0000
   1685 C           6.1577   11.5802   20.1890 C.ar    1  UNL1        0.0000
   1686 C           7.8001    9.5744   21.2649 C.ar    1  UNL1        0.0000
   1687 C          10.0989   17.9652   18.1689 C.ar    1  UNL1        0.0000
   1688 C          -3.3439   17.4572   19.1837 C.ar    1  UNL1        0.0000
   1689 C          13.4595    8.0571   14.3501 C.ar    1  UNL1        0.0000
   1690 C           2.1668   13.7529   25.0733 C.ar    1  UNL1        0.0000
   1691 C           0.3144   14.8681   14.2205 C.ar    1  UNL1        0.0000
   1692 C          -2.6764    8.1596   24.9321 C.ar    1  UNL1        0.0000
   1693 C          12.1162   16.6073   18.2230 C.ar    1  UNL1        0.0000
   1694 C          17.6660    4.4430   19.1277 C.ar    1  UNL1        0.0000
   1695 C           8.3075   10.4356   20.2915 C.ar    1  UNL1        0.0000
   1696 C           5.6555   10.7163   21.1632 C.ar    1  UNL1        0.0000
   1697 C          12.0366    7.6272   24.8637 C.ar    1  UNL1        0.0000
   1698 C           1.5857   15.3926   14.2627 C.ar    1  UNL1        0.0000
   1699 C           9.1129    0.7491   25.0209 C.ar    1  UNL1        0.0000
   1700 C          13.5304    6.6580   14.4292 C.ar    1  UNL1        0.0000
   1701 N          13.6132    6.0599   15.6662 N.pl3   1  UNL1        0.0000
   1702 N          11.4574    7.4258   23.6277 N.pl3   1  UNL1        0.0000
   1703 N          12.6761   11.8950   20.7494 N.pl3   1  UNL1        0.0000
   1704 N          11.0936    3.0956   22.3946 N.pl3   1  UNL1        0.0000
   1705 O          11.9095   12.1602   18.1868 O.3     1  UNL1        0.0000
   1706 O           1.6210    8.5613   21.1303 O.3     1  UNL1        0.0000
   1707 O           9.0202    4.6812   22.8060 O.3     1  UNL1        0.0000
   1708 O           5.1009   17.0095   16.5329 O.3     1  UNL1        0.0000
   1709 O           5.9939   15.6507   18.1124 O.3     1  UNL1        0.0000
   1710 O           7.4517    4.8729   21.1883 O.3     1  UNL1        0.0000
   1711 O          13.4992   11.8933   16.6000 O.3     1  UNL1        0.0000
   1712 O           0.7711    9.9174   22.7347 O.3     1  UNL1        0.0000
   1713 O          10.8316   11.5467   15.6155 O.3     1  UNL1        0.0000
   1714 O           3.3070    9.1313   23.2199 O.3     1  UNL1        0.0000
   1715 O          11.6927   13.8648   16.0635 O.3     1  UNL1        0.0000
   1716 O           1.6187    7.3461   23.7199 O.3     1  UNL1        0.0000
   1717 O           6.3345    4.3004   23.7846 O.3     1  UNL1        0.0000
   1718 O           7.6443   16.2595   16.0195 O.3     1  UNL1        0.0000
   1719 O           7.2066    6.5943   23.3183 O.3     1  UNL1        0.0000
   1720 O           5.9974   14.4446   15.5092 O.3     1  UNL1        0.0000
   1721 O           9.2500   12.2253   18.3546 O.3     1  UNL1        0.0000
   1722 O           2.8388    6.1151   21.0338 O.3     1  UNL1        0.0000
   1723 O           8.7413    3.5277   25.0723 O.3     1  UNL1        0.0000
   1724 O           6.4184   18.1440   14.2546 O.3     1  UNL1        0.0000
   1725 O           9.4459    6.3421   25.0666 O.3     1  UNL1        0.0000
   1726 O           4.2474   16.2316   14.2044 O.3     1  UNL1        0.0000
   1727 O           4.7038    4.8497   21.1014 O.3     1  UNL1        0.0000
   1728 O           7.2492   13.2572   18.2279 O.3     1  UNL1        0.0000
   1729 O          13.8741   13.5903   14.1936 O.3     1  UNL1        0.0000
   1730 O          -0.0732    9.1266   25.0543 O.3     1  UNL1        0.0000
   1731 O          13.1751   10.8099   14.2236 O.3     1  UNL1        0.0000
   1732 O           2.1320   10.9867   25.1254 O.3     1  UNL1        0.0000
   1733 O           8.9441   13.8732   16.1299 O.3     1  UNL1        0.0000
   1734 O           4.5279    6.7015   23.1272 O.3     1  UNL1        0.0000
   1735 O          11.4229   12.7377   13.1819 O.3     1  UNL1        0.0000
   1736 O           2.4366    8.4399   26.1551 O.3     1  UNL1        0.0000
   1737 TI         -2.5060    2.0139   37.4857 Ti      1  UNL1        0.0000
   1738 TI          8.1651    5.2817   28.0650 Ti      1  UNL1        0.0000
   1739 TI          1.7150   -1.7751   35.6375 Ti      1  UNL1        0.0000
   1740 TI          2.8740    7.4410   29.8690 Ti      1  UNL1        0.0000
   1741 TI          1.8070    9.0858   27.9725 Ti      1  UNL1        0.0000
   1742 TI          3.6218   -1.9659   37.5800 Ti      1  UNL1        0.0000
   1743 TI         -1.5075    0.3144   35.5866 Ti      1  UNL1        0.0000
   1744 TI          6.1783    5.5126   29.9238 Ti      1  UNL1        0.0000
   1745 H           4.1093    1.5511   34.8039 H       1  UNL1        0.0000
   1746 H          -6.6624   10.0412   32.6988 H       1  UNL1        0.0000
   1747 H           4.7939   10.9091   30.8709 H       1  UNL1        0.0000
   1748 H          -2.1413    5.9264   37.2689 H      15  UNL15       0.0000
   1749 H           9.1111    1.4058   28.3757 H       1  UNL1        0.0000
   1750 H          -6.4392    1.1204   37.1242 H       1  UNL1        0.0000
   1751 H          11.4765    7.4023   28.2496 H       1  UNL1        0.0000
   1752 H           4.7351   -5.9635   37.1831 H      12  UNL12       0.0000
   1753 H          -2.2267    8.3546   28.3163 H       1  UNL1        0.0000
   1754 H           5.0193    3.1026   33.0474 H       1  UNL1        0.0000
   1755 H           0.3171    3.5688   34.6266 H       1  UNL1        0.0000
   1756 H          12.8033   -1.9298   32.5990 H       1  UNL1        0.0000
   1757 H          -1.9649    0.2303   39.2047 H       1  UNL1        0.0000
   1758 H           6.2897    4.9759   26.3751 H       1  UNL1        0.0000
   1759 H           4.1238   -2.6082   32.0653 H       1  UNL1        0.0000
   1760 H           1.1080    9.2126   33.5000 H       1  UNL1        0.0000
   1761 H          -5.6975    3.5596   35.2580 H       1  UNL1        0.0000
   1762 H          11.0036    3.2918   30.3527 H       1  UNL1        0.0000
   1763 H          -3.3661    2.1972   31.9094 H       1  UNL1        0.0000
   1764 H          -1.3416   10.8018   30.3455 H       1  UNL1        0.0000
   1765 H           2.0958   12.1994   28.8301 H       1  UNL1        0.0000
   1766 H           9.0304   -0.6188   29.5763 H       1  UNL1        0.0000
   1767 H           4.9690    7.1958   28.5183 H       1  UNL1        0.0000
   1768 H           0.5779    0.0330   36.9397 H       1  UNL1        0.0000
   1769 H           7.7776    0.1172   35.9489 H       1  UNL1        0.0000
   1770 H           6.3179   -0.4041   36.7038 H       1  UNL1        0.0000
   1771 H           8.1909    4.5694   34.8530 H       1  UNL1        0.0000
   1772 H           7.6000    4.9099   33.2382 H       1  UNL1        0.0000
   1773 H           7.4605   -4.8514   35.7547 H       1  UNL1        0.0000
   1774 H           6.1464   -3.7966   36.2207 H       1  UNL1        0.0000
   1775 H           1.7738    1.8100   35.5766 H       1  UNL1        0.0000
   1776 H           1.2262    5.1254   32.8691 H       1  UNL1        0.0000
   1777 H           6.1033    8.9678   30.0659 H       1  UNL1        0.0000
   1778 H           8.3614    8.5084   30.9651 H       1  UNL1        0.0000
   1779 C           8.7846    4.5576   30.9242 C.3     1  UNL1        0.0000
   1780 C          -3.4909    2.2451   34.6444 C.3     1  UNL1        0.0000
   1781 C           4.3239   -2.6942   34.6971 C.3     1  UNL1        0.0000
   1782 C           0.8759    9.3418   30.8418 C.3     1  UNL1        0.0000
   1783 C           9.7067    3.9836   31.9136 C.ar    1  UNL1        0.0000
   1784 C          -4.4495    2.8385   33.6734 C.ar    1  UNL1        0.0000
   1785 C           5.2796   -3.2743   33.7439 C.ar    1  UNL1        0.0000
   1786 C          -0.0303    9.9560   31.8474 C.ar    1  UNL1        0.0000
   1787 C           9.4633    4.0482   33.3215 C.ar    1  UNL1        0.0000
   1788 C          -4.2368    2.7278   32.2841 C.ar    1  UNL1        0.0000
   1789 C           6.4374   -3.9954   34.1896 C.ar    1  UNL1        0.0000
   1790 C          -1.1537   10.6909   31.4097 C.ar    1  UNL1        0.0000
   1791 C           0.2376    9.7926   33.2006 C.ar    1  UNL1        0.0000
   1792 C           5.0197   -3.1492   32.3615 C.ar    1  UNL1        0.0000
   1793 C          10.8613    3.3251   31.4306 C.ar    1  UNL1        0.0000
   1794 C          -5.5703    3.4916   34.1792 C.ar    1  UNL1        0.0000
   1795 C           3.1760    4.2058   32.8601 C.ar    1  UNL1        0.0000
   1796 C           2.1644    2.4785   34.8114 C.ar    1  UNL1        0.0000
   1797 C           6.5237    9.6247   30.8257 C.ar    1  UNL1        0.0000
   1798 C          -1.3677   -3.0463   32.7488 C.ar    1  UNL1        0.0000
   1799 C           9.0774    1.4867   26.2319 C.ar    1  UNL1        0.0000
   1800 C           2.2014   13.0459   26.3092 C.ar    1  UNL1        0.0000
   1801 C           7.0465    0.0938   39.2104 C.2     1  UNL1        0.0000
   1802 C          -6.3574    1.1702   39.2673 C.2     1  UNL1        0.0000
   1803 C           3.7128    5.1229   31.8261 C.3     1  UNL1        0.0000
   1804 C          -0.7826   -2.1350   33.7608 C.3     1  UNL1        0.0000
   1805 C           4.5784   -4.3032   39.3217 C.3     1  UNL1        0.0000
   1806 C           2.1584   11.6100   26.2702 C.3     1  UNL1        0.0000
   1807 C           5.7712   -0.5679   39.2636 C.2     1  UNL1        0.0000
   1808 C          -4.9702    1.6331   39.2845 C.2     1  UNL1        0.0000
   1809 C           1.8452    4.3410   33.2993 C.ar    1  UNL1        0.0000
   1810 C           3.4876    2.3352   34.3751 C.ar    1  UNL1        0.0000
   1811 C           5.7864   10.7260   31.2792 C.ar    1  UNL1        0.0000
   1812 C          -7.6564   10.2180   32.2939 C.ar    1  UNL1        0.0000
   1813 C           9.1469    0.8179   27.4604 C.ar    1  UNL1        0.0000
   1814 C          -2.1457    6.5137   38.1835 C.2    15  UNL15       0.0000
   1815 C          -3.9982    7.6289   27.3308 C.ar    1  UNL1        0.0000
   1816 C          -6.9890    0.9204   38.0424 C.2     1  UNL1        0.0000
   1817 C           7.8036    9.3680   31.3332 C.ar    1  UNL1        0.0000
   1818 C          13.3535   -2.7962   32.2379 C.ar    1  UNL1        0.0000
   1819 C           3.9950    3.1964   33.4017 C.ar    1  UNL1        0.0000
   1820 C           1.3430    3.4771   34.2734 C.ar    1  UNL1        0.0000
   1821 C           7.7241    0.3880   37.9739 C.2     1  UNL1        0.0000
   1822 C          -2.7268    8.1534   27.3730 C.ar    1  UNL1        0.0000
   1823 C           4.8004   -6.4901   38.1312 C.2    12  UNL12       0.0000
   1824 C           9.2178   -0.5812   27.5394 C.ar    1  UNL1        0.0000
   1825 N           9.3006   -1.1793   28.7764 N.pl3   1  UNL1        0.0000
   1826 N           7.1449    0.1866   36.7380 N.pl3   1  UNL1        0.0000
   1827 N           8.3636    4.6557   33.8596 N.pl3   1  UNL1        0.0000
   1828 N           6.7810   -4.1436   35.5049 N.pl3   1  UNL1        0.0000
   1829 O           7.5969    4.9210   31.2971 O.3     1  UNL1        0.0000
   1830 O          -2.6916    1.3221   34.2406 O.3     1  UNL1        0.0000
   1831 O           4.7076   -2.5580   35.9163 O.3     1  UNL1        0.0000
   1832 O           0.7884    9.7703   29.6432 O.3     1  UNL1        0.0000
   1833 O           1.6814    8.4115   31.2227 O.3     1  UNL1        0.0000
   1834 O           3.1391   -2.3663   34.2986 O.3     1  UNL1        0.0000
   1835 O           9.1866    4.6541   29.7103 O.3     1  UNL1        0.0000
   1836 O          -3.5414    2.6782   35.8450 O.3     1  UNL1        0.0000
   1837 O           6.5191    4.3075   28.7258 O.3     1  UNL1        0.0000
   1838 O          -1.0055    1.8921   36.3302 O.3     1  UNL1        0.0000
   1839 O           7.3802    6.6256   29.1737 O.3     1  UNL1        0.0000
   1840 O          -2.6938    0.1069   36.8302 O.3     1  UNL1        0.0000
   1841 O           2.0220   -2.9388   36.8949 O.3     1  UNL1        0.0000
   1842 O           3.3318    9.0203   29.1298 O.3     1  UNL1        0.0000
   1843 O           2.8940   -0.6449   36.4286 O.3     1  UNL1        0.0000
   1844 O           1.6849    7.2054   28.6194 O.3     1  UNL1        0.0000
   1845 O           4.9375    4.9861   31.4649 O.3     1  UNL1        0.0000
   1846 O          -1.4738   -1.1241   34.1441 O.3     1  UNL1        0.0000
   1847 O           4.4288   -3.7115   38.1826 O.3     1  UNL1        0.0000
   1848 O           2.1059   10.9048   27.3649 O.3     1  UNL1        0.0000
   1849 O           5.1333   -0.8971   38.1769 O.2     1  UNL1        0.0000
   1850 O          -0.0651    8.9924   27.3147 O.3     1  UNL1        0.0000
   1851 O           0.3913   -2.3895   34.2117 O.3     1  UNL1        0.0000
   1852 O           2.9367    6.0180   31.3382 O.3     1  UNL1        0.0000
   1853 O           9.5616    6.3511   27.3039 O.3     1  UNL1        0.0000
   1854 O          -4.3858    1.8874   38.1645 O.2     1  UNL1        0.0000
   1855 O           8.8625    3.5707   27.3338 O.3     1  UNL1        0.0000
   1856 O          -2.1805    3.7475   38.2357 O.3     1  UNL1        0.0000
   1857 O           4.6315    6.6340   29.2402 O.3     1  UNL1        0.0000
   1858 O           0.2154   -0.5377   36.2375 O.3     1  UNL1        0.0000
   1859 O           7.1103    5.4985   26.2921 O.3     1  UNL1        0.0000
   1860 O          -1.8759    1.2007   39.2653 O.3     1  UNL1        0.0000
   1861 TI         -0.9028   30.8691   11.2652 Ti      1  UNL1        0.0000
   1862 TI          9.7682   34.1369    1.8444 Ti      1  UNL1        0.0000
   1863 TI          3.3181   27.0801    9.4170 Ti      1  UNL1        0.0000
   1864 TI          4.4772   36.2962    3.6484 Ti      1  UNL1        0.0000
   1865 TI          3.4101   37.9411    1.7520 Ti      1  UNL1        0.0000
   1866 TI          5.2250   26.8893   11.3595 Ti      1  UNL1        0.0000
   1867 TI          0.0956   29.1696    9.3660 Ti      1  UNL1        0.0000
   1868 TI          7.7814   34.3678    3.7033 Ti      1  UNL1        0.0000
   1869 H           5.7124   30.4063    8.5834 H       1  UNL1        0.0000
   1870 H          -5.0593   38.8964    6.4782 H       4  UNL4        0.0000
   1871 H           6.3970   39.7643    4.6503 H      16  UNL16       0.0000
   1872 H          -0.5382   34.7816   11.0484 H       1  UNL1        0.0000
   1873 H          10.7143   30.2610    2.1552 H       1  UNL1        0.0000
   1874 H          -4.8361   29.9756   10.9036 H       1  UNL1        0.0000
   1875 H          13.0796   36.2575    2.0291 H      27  UNL27       0.0000
   1876 H           6.3382   22.8917   10.9625 H       1  UNL1        0.0000
   1877 H          -0.6235   37.2098    2.0957 H      16  UNL16       0.0000
   1878 H           6.6224   31.9578    6.8269 H       1  UNL1        0.0000
   1879 H           1.9202   32.4240    8.4060 H       1  UNL1        0.0000
   1880 H          14.4064   26.9254    6.3785 H       1  UNL1        0.0000
   1881 H          -0.3617   29.0855   12.9842 H       1  UNL1        0.0000
   1882 H           7.8928   33.8311    0.1546 H       1  UNL1        0.0000
   1883 H           5.7269   26.2470    5.8447 H       1  UNL1        0.0000
   1884 H           2.7111   38.0678    7.2795 H       1  UNL1        0.0000
   1885 H          -4.0944   32.4148    9.0374 H       1  UNL1        0.0000
   1886 H          12.6067   32.1470    4.1322 H       1  UNL1        0.0000
   1887 H          -1.7630   31.0524    5.6889 H       1  UNL1        0.0000
   1888 H           0.2615   39.6570    4.1249 H       1  UNL1        0.0000
   1889 H           3.6989   41.0546    2.6096 H      17  UNK17       0.0000
   1890 H          10.6335   28.2364    3.3557 H       1  UNL1        0.0000
   1891 H           6.5721   36.0510    2.2978 H       1  UNL1        0.0000
   1892 H           2.1810   28.8882   10.7192 H       1  UNL1        0.0000
   1893 H           9.3807   28.9724    9.7284 H       1  UNL1        0.0000
   1894 H           7.9210   28.4512   10.4833 H       1  UNL1        0.0000
   1895 H           9.7940   33.4246    8.6325 H       1  UNL1        0.0000
   1896 H           9.2031   33.7651    7.0176 H       1  UNL1        0.0000
   1897 H           9.0636   24.0038    9.5342 H       1  UNL1        0.0000
   1898 H           7.7495   25.0586   10.0002 H       1  UNL1        0.0000
   1899 H           3.3770   30.6652    9.3560 H       1  UNL1        0.0000
   1900 H           2.8293   33.9807    6.6485 H       1  UNL1        0.0000
   1901 H           7.7064   37.8230    3.8453 H      16  UNL16       0.0000
   1902 H           9.9645   37.3636    4.7446 H      16  UNL16       0.0000
   1903 C          10.3877   33.4128    4.7037 C.3     1  UNL1        0.0000
   1904 C          -1.8878   31.1003    8.4239 C.3     1  UNL1        0.0000
   1905 C           5.9270   26.1610    8.4766 C.3     1  UNL1        0.0000
   1906 C           2.4790   38.1970    4.6213 C.3     1  UNL1        0.0000
   1907 C          11.3098   32.8389    5.6930 C.ar    1  UNL1        0.0000
   1908 C          -2.8464   31.6937    7.4529 C.ar    1  UNL1        0.0000
   1909 C           6.8827   25.5809    7.5233 C.ar    1  UNL1        0.0000
   1910 C           1.5728   38.8112    5.6269 C.2     1  UNL1        0.0000
   1911 C          11.0664   32.9034    7.1009 C.ar    1  UNL1        0.0000
   1912 C          -2.6337   31.5830    6.0635 C.ar    1  UNL1        0.0000
   1913 C           8.0405   24.8598    7.9691 C.ar    1  UNL1        0.0000
   1914 C           0.4494   39.5461    5.1891 C.3     1  UNL1        0.0000
   1915 C           1.8407   38.6478    6.9801 C.2     1  UNL1        0.0000
   1916 C           6.6228   25.7060    6.1410 C.ar    1  UNL1        0.0000
   1917 C          12.4644   32.1803    5.2100 C.ar    1  UNL1        0.0000
   1918 C          -3.9671   32.3468    7.9586 C.ar    1  UNL1        0.0000
   1919 C           4.7791   33.0610    6.6396 C.ar    1  UNL1        0.0000
   1920 C           3.7676   31.3338    8.5908 C.ar    1  UNL1        0.0000
   1921 C           8.1268   38.4799    4.6051 C.2    16  UNL16       0.0000
   1922 C           0.2354   25.8089    6.5282 C.ar    1  UNL1        0.0000
   1923 C          10.6806   30.3419    0.0113 C.3     1  UNL1        0.0000
   1924 C           3.8045   41.9011    0.0887 C.3     1  UNL1        0.0000
   1925 C           8.6496   28.9490   12.9898 C.ar    1  UNL1        0.0000
   1926 C          -4.7542   30.0254   13.0467 C.ar    1  UNL1        0.0000
   1927 C           5.3160   33.9781    5.6056 C.3     1  UNL1        0.0000
   1928 C           0.8205   26.7202    7.5402 C.3     1  UNL1        0.0000
   1929 C           6.1815   24.5520   13.1012 C.3     1  UNL1        0.0000
   1930 C           3.7615   40.4652    0.0497 C.3     1  UNL1        0.0000
   1931 C           7.3743   28.2873   13.0430 C.3     1  UNL1        0.0000
   1932 C          -3.3671   30.4883   13.0640 C.3     1  UNL1        0.0000
   1933 C           3.4483   33.1962    7.0787 C.ar    1  UNL1        0.0000
   1934 C           5.0907   31.1904    8.1546 C.ar    1  UNL1        0.0000
   1935 C           7.3895   39.5812    5.0587 C.2    16  UNL16       0.0000
   1936 C          -6.0533   39.0732    6.0734 C.2     4  UNL4        0.0000
   1937 C          10.7500   29.6731    1.2398 C.2     1  UNL1        0.0000
   1938 C          -0.5426   35.3689   11.9630 C.3     1  UNL1        0.0000
   1939 C          -2.3950   36.4842    1.1102 C.2    16  UNL16       0.0000
   1940 C          -5.3858   29.7756   11.8218 C.ar    1  UNL1        0.0000
   1941 C           9.4068   38.2233    5.1127 C.2    16  UNL16       0.0000
   1942 C          14.9566   26.0590    6.0174 C.ar    1  UNL1        0.0000
   1943 C           5.5981   32.0517    7.1812 C.ar    1  UNL1        0.0000
   1944 C           2.9461   32.3323    8.0529 C.ar    1  UNL1        0.0000
   1945 C           9.3272   29.2432   11.7534 C.ar    1  UNL1        0.0000
   1946 C          -1.1237   37.0086    1.1525 C.2    16  UNL16       0.0000
   1947 C           6.4035   22.3652   11.9106 C.ar    1  UNL1        0.0000
   1948 C          10.8210   28.2740    1.3189 C.2     1  UNL1        0.0000
   1949 N          10.9038   27.6760    2.5559 N.pl3   1  UNL1        0.0000
   1950 N           8.7480   29.0418   10.5174 N.pl3   1  UNL1        0.0000
   1951 N           9.9667   33.5110    7.6391 N.pl3   1  UNL1        0.0000
   1952 N           8.3842   24.7116    9.2844 N.pl3   1  UNL1        0.0000
   1953 O           9.2001   33.7763    5.0765 O.3     1  UNL1        0.0000
   1954 O          -1.0884   30.1773    8.0200 O.3     1  UNL1        0.0000
   1955 O           6.3108   26.2972    9.6957 O.3     1  UNL1        0.0000
   1956 O           2.3915   38.6256    3.4226 O.3     1  UNL1        0.0000
   1957 O           3.2845   37.2667    5.0021 O.3     1  UNL1        0.0000
   1958 O           4.7423   26.4890    8.0781 O.3     1  UNL1        0.0000
   1959 O          10.7897   33.5093    3.4898 O.3     1  UNL1        0.0000
   1960 O          -1.9383   31.5334    9.6244 O.3     1  UNL1        0.0000
   1961 O           8.1222   33.1627    2.5052 O.3     1  UNL1        0.0000
   1962 O           0.5976   30.7474   10.1096 O.3     1  UNL1        0.0000
   1963 O           8.9833   35.4808    2.9532 O.3     1  UNL1        0.0000
   1964 O          -1.0907   28.9621   10.6096 O.3     1  UNL1        0.0000
   1965 O           3.6251   25.9164   10.6743 O.3     1  UNL1        0.0000
   1966 O           4.9349   37.8755    2.9093 O.3     1  UNL1        0.0000
   1967 O           4.4972   28.2103   10.2080 O.3     1  UNL1        0.0000
   1968 O           3.2880   36.0607    2.3989 O.3     1  UNL1        0.0000
   1969 O           6.5406   33.8413    5.2443 O.3     1  UNL1        0.0000
   1970 O           0.1294   27.7311    7.9235 O.3     1  UNL1        0.0000
   1971 O           6.0319   25.1437   11.9620 O.3     1  UNL1        0.0000
   1972 O           3.7090   39.7600    1.1444 O.3     1  UNL1        0.0000
   1973 O           6.7365   27.9581   11.9563 O.3     1  UNL1        0.0000
   1974 O           1.5380   37.8476    1.0941 O.3     1  UNL1        0.0000
   1975 O           1.9944   26.4657    7.9912 O.3     1  UNL1        0.0000
   1976 O           4.5398   34.8732    5.1176 O.3     1  UNL1        0.0000
   1977 O          11.1647   35.2063    1.0833 O.3     1  UNL1        0.0000
   1978 O          -2.7826   30.7426   11.9440 O.3     1  UNL1        0.0000
   1979 O          10.4657   32.4259    1.1133 O.3     1  UNL1        0.0000
   1980 O          -0.5774   32.6028   12.0151 O.2     1  UNL1        0.0000
   1981 O           6.2347   35.4892    3.0197 O.3     1  UNL1        0.0000
   1982 O           1.8185   28.3175   10.0169 O.3     1  UNL1        0.0000
   1983 O           8.7135   34.3538    0.0716 O.3     1  UNL1        0.0000
   1984 O          -0.2728   30.0559   13.0448 O.3     1  UNL1        0.0000
   1985 TI         -5.2154   23.6299   24.3754 Ti      1  UNL1        0.0000
   1986 TI          5.4557   26.8977   14.9547 Ti      1  UNL1        0.0000
   1987 TI         -0.9944   19.8409   22.5273 Ti      1  UNL1        0.0000
   1988 TI          0.1646   29.0570   16.7587 Ti      1  UNL1        0.0000
   1989 TI         -0.9024   30.7018   14.8622 Ti      1  UNL1        0.0000
   1990 TI          0.9124   19.6501   24.4698 Ti      1  UNL1        0.0000
   1991 TI         -4.2169   21.9304   22.4763 Ti      1  UNL1        0.0000
   1992 TI          3.4689   27.1286   16.8136 Ti      1  UNL1        0.0000
   1993 H           1.3999   23.1671   21.6937 H       1  UNL1        0.0000
   1994 H          -9.3718   31.6572   19.5885 H       7  UNL7        0.0000
   1995 H           2.0845   32.5251   17.7606 H      18  UNL18       0.0000
   1996 H          -4.8507   27.5424   24.1586 H       1  UNL1        0.0000
   1997 H           6.4017   23.0218   15.2654 H       1  UNL1        0.0000
   1998 H          -9.1486   22.7364   24.0139 H       1  UNL1        0.0000
   1999 H           8.7671   29.0183   15.1394 H       1  UNL1        0.0000
   2000 H           2.0257   15.6525   24.0728 H       1  UNL1        0.0000
   2001 H          -4.9361   29.9706   15.2060 H       1  UNL1        0.0000
   2002 H           2.3099   24.7186   19.9372 H       1  UNL1        0.0000
   2003 H          -2.3923   25.1848   21.5163 H       1  UNL1        0.0000
   2004 H          10.0939   19.6862   19.4887 H       1  UNL1        0.0000
   2005 H          -4.6743   21.8463   26.0944 H       1  UNL1        0.0000
   2006 H           3.5803   26.5919   13.2649 H       1  UNL1        0.0000
   2007 H           1.4144   19.0078   18.9550 H       1  UNL1        0.0000
   2008 H          -1.6014   30.8286   20.3897 H       1  UNL1        0.0000
   2009 H          -8.4069   25.1756   22.1477 H       1  UNL1        0.0000
   2010 H           8.2942   24.9078   17.2425 H       1  UNL1        0.0000
   2011 H          -6.0755   23.8132   18.7991 H       1  UNL1        0.0000
   2012 H          -4.0510   32.4178   17.2352 H       1  UNL1        0.0000
   2013 H          -0.6136   33.8154   15.7198 H      19  UNK19       0.0000
   2014 H           6.3210   20.9972   16.4660 H       1  UNL1        0.0000
   2015 H           2.2596   28.8118   15.4080 H       1  UNL1        0.0000
   2016 H          -2.1315   21.6490   23.8294 H       1  UNL1        0.0000
   2017 H           5.0682   21.7332   22.8387 H       1  UNL1        0.0000
   2018 H           3.6085   21.2120   23.5936 H       1  UNL1        0.0000
   2019 H           5.4814   26.1854   21.7428 H       1  UNL1        0.0000
   2020 H           4.8906   26.5259   20.1279 H       1  UNL1        0.0000
   2021 H           4.7511   16.7646   22.6444 H       1  UNL1        0.0000
   2022 H           3.4370   17.8194   23.1105 H       1  UNL1        0.0000
   2023 H          -0.9356   23.4260   22.4663 H       1  UNL1        0.0000
   2024 H          -1.4832   26.7415   19.7588 H       1  UNL1        0.0000
   2025 H           3.3939   30.5838   16.9556 H      18  UNL18       0.0000
   2026 H           5.6520   30.1244   17.8549 H      18  UNL18       0.0000
   2027 C           6.0752   26.1736   17.8139 C.3     1  UNL1        0.0000
   2028 C          -6.2003   23.8611   21.5341 C.3     1  UNL1        0.0000
   2029 C           1.6145   18.9218   21.5868 C.3     1  UNL1        0.0000
   2030 C          -1.8335   30.9578   17.7315 C.3     1  UNL1        0.0000
   2031 C           6.9973   25.5997   18.8033 C.ar    1  UNL1        0.0000
   2032 C          -7.1589   24.4545   20.5632 C.ar    1  UNL1        0.0000
   2033 C           2.5702   18.3417   20.6336 C.ar    1  UNL1        0.0000
   2034 C          -2.7397   31.5720   18.7372 C.2     1  UNL1        0.0000
   2035 C           6.7539   25.6642   20.2112 C.ar    1  UNL1        0.0000
   2036 C          -6.9462   24.3438   19.1738 C.ar    1  UNL1        0.0000
   2037 C           3.7280   17.6206   21.0793 C.ar    1  UNL1        0.0000
   2038 C          -3.8631   32.3069   18.2994 C.3     1  UNL1        0.0000
   2039 C          -2.4718   31.4086   20.0904 C.2     1  UNL1        0.0000
   2040 C           2.3103   18.4668   19.2512 C.ar    1  UNL1        0.0000
   2041 C           8.1519   24.9411   18.3203 C.ar    1  UNL1        0.0000
   2042 C          -8.2797   25.1076   21.0689 C.ar    1  UNL1        0.0000
   2043 C           0.4666   25.8218   19.7498 C.ar    1  UNL1        0.0000
   2044 C          -0.5450   24.0946   21.7011 C.ar    1  UNL1        0.0000
   2045 C           3.8143   31.2407   17.7154 C.2    18  UNL18       0.0000
   2046 C          -4.0771   18.5697   19.6385 C.ar    1  UNL1        0.0000
   2047 C           6.3680   23.1027   13.1216 C.ar    1  UNL1        0.0000
   2048 C          -0.5080   34.6619   13.1989 C.2     1  UNL1        0.0000
   2049 C           4.3371   21.7098   26.1001 C.ar    1  UNL1        0.0000
   2050 C          -9.0668   22.7862   26.1570 C.ar    1  UNL1        0.0000
   2051 C           1.0034   26.7389   18.7159 C.3     1  UNL1        0.0000
   2052 C          -3.4920   19.4810   20.6505 C.3     1  UNL1        0.0000
   2053 C           1.8689   17.3128   26.2114 C.3     1  UNL1        0.0000
   2054 C          -0.5510   33.2260   13.1600 C.2     1  UNL1        0.0000
   2055 C           3.0618   21.0481   26.1533 C.3     1  UNL1        0.0000
   2056 C          -7.6796   23.2491   26.1743 C.3     1  UNL1        0.0000
   2057 C          -0.8642   25.9570   20.1890 C.ar    1  UNL1        0.0000
   2058 C           0.7782   23.9512   21.2649 C.ar    1  UNL1        0.0000
   2059 C           3.0770   32.3420   18.1689 C.2    18  UNL18       0.0000
   2060 C         -10.3658   31.8340   19.1837 C.2     7  UNL7        0.0000
   2061 C           6.4375   22.4339   14.3501 C.ar    1  UNL1        0.0000
   2062 C          -4.8551   28.1297   25.0733 C.3     1  UNL1        0.0000
   2063 C          -6.7076   29.2450   14.2205 C.ar    1  UNL1        0.0000
   2064 C          -9.6984   22.5364   24.9321 C.ar    1  UNL1        0.0000
   2065 C           5.0942   30.9841   18.2230 C.2    18  UNL18       0.0000
   2066 C          10.6441   18.8198   19.1277 C.ar    1  UNL1        0.0000
   2067 C           1.2856   24.8125   20.2915 C.ar    1  UNL1        0.0000
   2068 C          -1.3665   25.0931   21.1632 C.ar    1  UNL1        0.0000
   2069 C           5.0147   22.0040   24.8637 C.ar    1  UNL1        0.0000
   2070 C          -5.4362   29.7694   14.2627 C.ar    1  UNL1        0.0000
   2071 C           2.0910   15.1260   25.0209 C.ar    1  UNL1        0.0000
   2072 C           6.5084   21.0348   14.4292 C.ar    1  UNL1        0.0000
   2073 N           6.5912   20.4368   15.6662 N.pl3   1  UNL1        0.0000
   2074 N           4.4354   21.8026   23.6277 N.pl3   1  UNL1        0.0000
   2075 N           5.6542   26.2718   20.7494 N.pl3   1  UNL1        0.0000
   2076 N           4.0716   17.4724   22.3946 N.pl3   1  UNL1        0.0000
   2077 O           4.8875   26.5371   18.1868 O.3     1  UNL1        0.0000
   2078 O          -5.4010   22.9381   21.1303 O.3     1  UNL1        0.0000
   2079 O           1.9982   19.0580   22.8060 O.3     1  UNL1        0.0000
   2080 O          -1.9210   31.3864   16.5329 O.3     1  UNL1        0.0000
   2081 O          -1.0280   30.0275   18.1124 O.3     1  UNL1        0.0000
   2082 O           0.4297   19.2497   21.1883 O.3     1  UNL1        0.0000
   2083 O           6.4772   26.2701   16.6000 O.3     1  UNL1        0.0000
   2084 O          -6.2508   24.2942   22.7347 O.3     1  UNL1        0.0000
   2085 O           3.8097   25.9235   15.6155 O.3     1  UNL1        0.0000
   2086 O          -3.7150   23.5082   23.2199 O.3     1  UNL1        0.0000
   2087 O           4.6708   28.2416   16.0635 O.3     1  UNL1        0.0000
   2088 O          -5.4032   21.7229   23.7199 O.3     1  UNL1        0.0000
   2089 O          -0.6874   18.6772   23.7846 O.3     1  UNL1        0.0000
   2090 O           0.6224   30.6363   16.0195 O.3     1  UNL1        0.0000
   2091 O           0.1846   20.9711   23.3183 O.3     1  UNL1        0.0000
   2092 O          -1.0245   28.8215   15.5092 O.3     1  UNL1        0.0000
   2093 O           2.2281   26.6021   18.3546 O.3     1  UNL1        0.0000
   2094 O          -4.1832   20.4919   21.0338 O.3     1  UNL1        0.0000
   2095 O           1.7194   17.9045   25.0723 O.3     1  UNL1        0.0000
   2096 O          -0.6035   32.5208   14.2546 O.2     1  UNL1        0.0000
   2097 O           2.4239   20.7189   25.0666 O.3     1  UNL1        0.0000
   2098 O          -2.7745   30.6084   14.2044 O.3     1  UNL1        0.0000
   2099 O          -2.3181   19.2265   21.1014 O.3     1  UNL1        0.0000
   2100 O           0.2272   27.6340   18.2279 O.3     1  UNL1        0.0000
   2101 O           6.8522   27.9671   14.1936 O.3     1  UNL1        0.0000
   2102 O          -7.0952   23.5034   25.0543 O.3     1  UNL1        0.0000
   2103 O           6.1531   25.1867   14.2236 O.3     1  UNL1        0.0000
   2104 O          -4.8899   25.3636   25.1254 O.2     1  UNL1        0.0000
   2105 O           1.9221   28.2500   16.1299 O.3     1  UNL1        0.0000
   2106 O          -2.4940   21.0783   23.1272 O.3     1  UNL1        0.0000
   2107 O           4.4009   27.1146   13.1819 O.3     1  UNL1        0.0000
   2108 O          -4.5853   22.8167   26.1551 O.3     1  UNL1        0.0000
   2109 TI         -9.5279   16.3907   37.4857 Ti      1  UNL1        0.0000
   2110 TI          1.1432   19.6585   28.0650 Ti      1  UNL1        0.0000
   2111 TI         -5.3069   12.6017   35.6375 Ti      1  UNL1        0.0000
   2112 TI         -4.1479   21.8178   29.8690 Ti      1  UNL1        0.0000
   2113 TI         -5.2149   23.4626   27.9725 Ti      1  UNL1        0.0000
   2114 TI         -3.4001   12.4109   37.5800 Ti      1  UNL1        0.0000
   2115 TI         -8.5294   14.6912   35.5866 Ti      1  UNL1        0.0000
   2116 TI         -0.8436   19.8894   29.9238 Ti      1  UNL1        0.0000
   2117 H          -2.9126   15.9279   34.8039 H       1  UNL1        0.0000
   2118 H         -13.6844   24.4180   32.6988 H      10  UNL10       0.0000
   2119 H          -2.2280   25.2859   30.8709 H      20  UNL20       0.0000
   2120 H          -9.1632   20.3032   37.2689 H      17  UNK17       0.0000
   2121 H           2.0892   15.7826   28.3757 H       1  UNL1        0.0000
   2122 H         -13.4611   15.4972   37.1242 H       1  UNL1        0.0000
   2123 H           4.4546   21.7791   28.2496 H       1  UNL1        0.0000
   2124 H          -2.2868    8.4133   37.1831 H      15  UNL15       0.0000
   2125 H          -9.2486   22.7314   28.3163 H       1  UNL1        0.0000
   2126 H          -2.0026   17.4794   33.0474 H       1  UNL1        0.0000
   2127 H          -6.7048   17.9456   34.6266 H       1  UNL1        0.0000
   2128 H           5.7813   12.4470   32.5990 H       1  UNL1        0.0000
   2129 H          -8.9868   14.6071   39.2047 H       1  UNL1        0.0000
   2130 H          -0.7323   19.3527   26.3751 H       1  UNL1        0.0000
   2131 H          -2.8981   11.7686   32.0653 H       1  UNL1        0.0000
   2132 H          -5.9140   23.5894   33.5000 H       1  UNL1        0.0000
   2133 H         -12.7195   17.9364   35.2580 H       1  UNL1        0.0000
   2134 H           3.9817   17.6686   30.3527 H       1  UNL1        0.0000
   2135 H         -10.3881   16.5740   31.9094 H       1  UNL1        0.0000
   2136 H          -8.3635   25.1786   30.3455 H       1  UNL1        0.0000
   2137 H          -4.9261   26.5762   28.8301 H      21  UNK21       0.0000
   2138 H           2.0085   13.7580   29.5763 H       1  UNL1        0.0000
   2139 H          -2.0529   21.5726   28.5183 H       1  UNL1        0.0000
   2140 H          -6.4441   14.4098   36.9397 H       1  UNL1        0.0000
   2141 H           0.7556   14.4940   35.9489 H       1  UNL1        0.0000
   2142 H          -0.7041   13.9728   36.7038 H       1  UNL1        0.0000
   2143 H           1.1689   18.9462   34.8530 H       1  UNL1        0.0000
   2144 H           0.5780   19.2867   33.2382 H       1  UNL1        0.0000
   2145 H           0.4385    9.5254   35.7547 H       1  UNL1        0.0000
   2146 H          -0.8756   10.5802   36.2207 H       1  UNL1        0.0000
   2147 H          -5.2481   16.1868   35.5766 H       1  UNL1        0.0000
   2148 H          -5.7958   19.5023   32.8691 H       1  UNL1        0.0000
   2149 H          -0.9186   23.3446   30.0659 H      20  UNL20       0.0000
   2150 H           1.3395   22.8852   30.9651 H      20  UNL20       0.0000
   2151 C           1.7627   18.9344   30.9242 C.3     1  UNL1        0.0000
   2152 C         -10.5129   16.6219   34.6444 C.3     1  UNL1        0.0000
   2153 C          -2.6980   11.6826   34.6971 C.3     1  UNL1        0.0000
   2154 C          -6.1460   23.7186   30.8418 C.3     1  UNL1        0.0000
   2155 C           2.6847   18.3605   31.9136 C.ar    1  UNL1        0.0000
   2156 C         -11.4714   17.2153   33.6734 C.ar    1  UNL1        0.0000
   2157 C          -1.7423   11.1025   33.7439 C.ar    1  UNL1        0.0000
   2158 C          -7.0522   24.3328   31.8474 C.2     1  UNL1        0.0000
   2159 C           2.4414   18.4250   33.3215 C.ar    1  UNL1        0.0000
   2160 C         -11.2588   17.1046   32.2841 C.ar    1  UNL1        0.0000
   2161 C          -0.5846   10.3814   34.1896 C.ar    1  UNL1        0.0000
   2162 C          -8.1757   25.0677   31.4097 C.3     1  UNL1        0.0000
   2163 C          -6.7844   24.1694   33.2006 C.2     1  UNL1        0.0000
   2164 C          -2.0022   11.2276   32.3615 C.ar    1  UNL1        0.0000
   2165 C           3.8394   17.7019   31.4306 C.ar    1  UNL1        0.0000
   2166 C         -12.5922   17.8684   34.1792 C.ar    1  UNL1        0.0000
   2167 C          -3.8459   18.5826   32.8601 C.ar    1  UNL1        0.0000
   2168 C          -4.8575   16.8554   34.8114 C.ar    1  UNL1        0.0000
   2169 C          -0.4982   24.0015   30.8257 C.2    20  UNL20       0.0000
   2170 C          -8.3896   11.3305   32.7488 C.ar    1  UNL1        0.0000
   2171 C           2.0555   15.8635   26.2319 C.ar    1  UNL1        0.0000
   2172 C          -4.8205   27.4227   26.3092 C.2     1  UNL1        0.0000
   2173 C           0.0245   14.4706   39.2104 C.2     1  UNL1        0.0000
   2174 C         -13.3793   15.5470   39.2673 C.2     1  UNL1        0.0000
   2175 C          -3.3091   19.4997   31.8261 C.3     1  UNL1        0.0000
   2176 C          -7.8045   12.2418   33.7608 C.3     1  UNL1        0.0000
   2177 C          -2.4436   10.0736   39.3217 C.3     1  UNL1        0.0000
   2178 C          -4.8635   25.9868   26.2702 C.2     1  UNL1        0.0000
   2179 C          -1.2508   13.8089   39.2636 C.2     1  UNL1        0.0000
   2180 C         -11.9921   16.0099   39.2845 C.2     1  UNL1        0.0000
   2181 C          -5.1767   18.7178   33.2993 C.ar    1  UNL1        0.0000
   2182 C          -3.5344   16.7120   34.3751 C.ar    1  UNL1        0.0000
   2183 C          -1.2356   25.1028   31.2792 C.2    20  UNL20       0.0000
   2184 C         -14.6784   24.5948   32.2939 C.2    10  UNL10       0.0000
   2185 C           2.1250   15.1947   27.4604 C.ar    1  UNL1        0.0000
   2186 C          -9.1677   20.8905   38.1835 C.3    22  UNL22       0.0000
   2187 C         -11.0201   22.0058   27.3308 C.ar    1  UNL1        0.0000
   2188 C         -14.0109   15.2972   38.0424 C.2     1  UNL1        0.0000
   2189 C           0.7817   23.7449   31.3332 C.2    20  UNL20       0.0000
   2190 C           6.3316   11.5806   32.2379 C.ar    1  UNL1        0.0000
   2191 C          -3.0270   17.5732   33.4017 C.ar    1  UNL1        0.0000
   2192 C          -5.6790   17.8539   34.2734 C.ar    1  UNL1        0.0000
   2193 C           0.7022   14.7648   37.9739 C.2     1  UNL1        0.0000
   2194 C          -9.7487   22.5302   27.3730 C.ar    1  UNL1        0.0000
   2195 C          -2.2216    7.8867   38.1312 C.2    15  UNL15       0.0000
   2196 C           2.1959   13.7956   27.5394 C.ar    1  UNL1        0.0000
   2197 N           2.2787   13.1976   28.7764 N.pl3   1  UNL1        0.0000
   2198 N           0.1229   14.5634   36.7380 N.pl3   1  UNL1        0.0000
   2199 N           1.3416   19.0326   33.8596 N.pl3   1  UNL1        0.0000
   2200 N          -0.2409   10.2332   35.5049 N.pl3   1  UNL1        0.0000
   2201 O           0.5750   19.2979   31.2971 O.3     1  UNL1        0.0000
   2202 O          -9.7135   15.6989   34.2406 O.3     1  UNL1        0.0000
   2203 O          -2.3143   11.8188   35.9163 O.3     1  UNL1        0.0000
   2204 O          -6.2335   24.1472   29.6432 O.3     1  UNL1        0.0000
   2205 O          -5.3406   22.7883   31.2227 O.3     1  UNL1        0.0000
   2206 O          -3.8828   12.0105   34.2986 O.3     1  UNL1        0.0000
   2207 O           2.1647   19.0309   29.7103 O.3     1  UNL1        0.0000
   2208 O         -10.5633   17.0550   35.8450 O.3     1  UNL1        0.0000
   2209 O          -0.5029   18.6843   28.7258 O.3     1  UNL1        0.0000
   2210 O          -8.0275   16.2690   36.3302 O.3     1  UNL1        0.0000
   2211 O           0.3582   21.0024   29.1737 O.3     1  UNL1        0.0000
   2212 O          -9.7158   14.4837   36.8302 O.3     1  UNL1        0.0000
   2213 O          -4.9999   11.4380   36.8949 O.3     1  UNL1        0.0000
   2214 O          -3.6901   23.3971   29.1298 O.3     1  UNL1        0.0000
   2215 O          -4.1279   13.7319   36.4286 O.3     1  UNL1        0.0000
   2216 O          -5.3371   21.5822   28.6194 O.3     1  UNL1        0.0000
   2217 O          -2.0845   19.3629   31.4649 O.3     1  UNL1        0.0000
   2218 O          -8.4957   13.2527   34.1441 O.3     1  UNL1        0.0000
   2219 O          -2.5932   10.6653   38.1826 O.3     1  UNL1        0.0000
   2220 O          -4.9160   25.2816   27.3649 O.2     1  UNL1        0.0000
   2221 O          -1.8886   13.4797   38.1769 O.2     1  UNL1        0.0000
   2222 O          -7.0870   23.3692   27.3147 O.3     1  UNL1        0.0000
   2223 O          -6.6306   11.9873   34.2117 O.3     1  UNL1        0.0000
   2224 O          -4.0853   20.3948   31.3382 O.3     1  UNL1        0.0000
   2225 O           2.5396   20.7279   27.3039 O.3     1  UNL1        0.0000
   2226 O         -11.4077   16.2642   38.1645 O.2     1  UNL1        0.0000
   2227 O           1.8406   17.9475   27.3338 O.3     1  UNL1        0.0000
   2228 O          -9.2025   18.1244   38.2357 O.3     1  UNL1        0.0000
   2229 O          -2.3904   21.0108   29.2402 O.3     1  UNL1        0.0000
   2230 O          -6.8066   13.8391   36.2375 O.3     1  UNL1        0.0000
   2231 O           0.0884   19.8754   26.2921 O.3     1  UNL1        0.0000
   2232 O          -8.8978   15.5775   39.2653 O.3     1  UNL1        0.0000
   2233 TI         29.1504    2.1155   11.2652 Ti      1  UNL1        0.0000
   2234 TI         39.8215    5.3833    1.8444 Ti      1  UNL1        0.0000
   2235 TI         33.3714   -1.6735    9.4170 Ti      1  UNL1        0.0000
   2236 TI         34.5304    7.5426    3.6484 Ti      1  UNL1        0.0000
   2237 TI         33.4634    9.1874    1.7520 Ti      1  UNL1        0.0000
   2238 TI         35.2782   -1.8643   11.3595 Ti      1  UNL1        0.0000
   2239 TI         30.1489    0.4160    9.3660 Ti      1  UNL1        0.0000
   2240 TI         37.8347    5.6142    3.7033 Ti      1  UNL1        0.0000
   2241 H          35.7657    1.6527    8.5834 H       1  UNL1        0.0000
   2242 H          24.9940   10.1428    6.4782 H       1  UNL1        0.0000
   2243 H          36.4503   11.0107    4.6503 H      23  UNL23       0.0000
   2244 H          29.5151    6.0280   11.0484 H       1  UNL1        0.0000
   2245 H          40.7675    1.5074    2.1552 H      24  UNL24       0.0000
   2246 H          25.2172    1.2219   10.9036 H       1  UNL1        0.0000
   2247 H          43.1329    7.5039    2.0291 H      25  UNK25       0.0000
   2248 H          36.3915   -5.8619   10.9625 H       1  UNL1        0.0000
   2249 H          29.4297    8.4562    2.0957 H      18  UNL18       0.0000
   2250 H          36.6757    3.2042    6.8269 H       1  UNL1        0.0000
   2251 H          31.9735    3.6704    8.4060 H       1  UNL1        0.0000
   2252 H          44.4597   -1.8282    6.3785 H      19  UNK19       0.0000
   2253 H          29.6915    0.3319   12.9842 H       1  UNL1        0.0000
   2254 H          37.9461    5.0775    0.1546 H       1  UNL1        0.0000
   2255 H          35.7802   -2.5066    5.8447 H       1  UNL1        0.0000
   2256 H          32.7644    9.3142    7.2795 H       1  UNL1        0.0000
   2257 H          25.9588    3.6612    9.0374 H       1  UNL1        0.0000
   2258 H          42.6600    3.3934    4.1322 H       1  UNL1        0.0000
   2259 H          28.2902    2.2987    5.6889 H       1  UNL1        0.0000
   2260 H          30.3148   10.9034    4.1249 H       1  UNL1        0.0000
   2261 H          33.7522   12.3010    2.6096 H       1  UNL1        0.0000
   2262 H          40.6868   -0.5172    3.3557 H      24  UNL24       0.0000
   2263 H          36.6254    7.2974    2.2978 H       1  UNL1        0.0000
   2264 H          32.2343    0.1346   10.7192 H       1  UNL1        0.0000
   2265 H          39.4340    0.2188    9.7284 H       1  UNL1        0.0000
   2266 H          37.9743   -0.3025   10.4833 H       1  UNL1        0.0000
   2267 H          39.8472    4.6710    8.6325 H       1  UNL1        0.0000
   2268 H          39.2564    5.0115    7.0176 H       1  UNL1        0.0000
   2269 H          39.1169   -4.7498    9.5342 H       1  UNL1        0.0000
   2270 H          37.8028   -3.6950   10.0002 H       1  UNL1        0.0000
   2271 H          33.4302    1.9116    9.3560 H       1  UNL1        0.0000
   2272 H          32.8826    5.2270    6.6485 H       1  UNL1        0.0000
   2273 H          37.7597    9.0694    3.8453 H      23  UNL23       0.0000
   2274 H          40.0178    8.6100    4.7446 H      23  UNL23       0.0000
   2275 C          40.4410    4.6592    4.7037 C.2     1  UNL1        0.0000
   2276 C          28.1655    2.3467    8.4239 C.3     1  UNL1        0.0000
   2277 C          35.9803   -2.5926    8.4766 C.3     1  UNL1        0.0000
   2278 C          32.5323    9.4434    4.6213 C.3     1  UNL1        0.0000
   2279 C          41.3631    4.0852    5.6930 C.2     1  UNL1        0.0000
   2280 C          27.2069    2.9401    7.4529 C.ar    1  UNL1        0.0000
   2281 C          36.9360   -3.1727    7.5233 C.2     1  UNL1        0.0000
   2282 C          31.6261   10.0576    5.6269 C.ar    1  UNL1        0.0000
   2283 C          41.1197    4.1498    7.1009 C.3     1  UNL1        0.0000
   2284 C          27.4196    2.8294    6.0635 C.ar    1  UNL1        0.0000
   2285 C          38.0938   -3.8938    7.9691 C.2     1  UNL1        0.0000
   2286 C          30.5027   10.7925    5.1891 C.ar    1  UNL1        0.0000
   2287 C          31.8940    9.8942    6.9801 C.ar    1  UNL1        0.0000
   2288 C          36.6761   -3.0476    6.1410 C.3     1  UNL1        0.0000
   2289 C          42.5177    3.4267    5.2100 C.3     1  UNL1        0.0000
   2290 C          26.0861    3.5932    7.9586 C.ar    1  UNL1        0.0000
   2291 C          34.8324    4.3074    6.6396 C.ar    1  UNL1        0.0000
   2292 C          33.8208    2.5801    8.5908 C.ar    1  UNL1        0.0000
   2293 C          38.1801    9.7262    4.6051 C.2    23  UNL23       0.0000
   2294 C          30.2887   -2.9447    6.5282 C.2     1  UNL1        0.0000
   2295 C          40.7338    1.5883    0.0113 C.3    24  UNL24       0.0000
   2296 C          33.8578   13.1474    0.0887 C.2     1  UNL1        0.0000
   2297 C          38.7029    0.1954   12.9898 C.2     1  UNL1        0.0000
   2298 C          25.2990    1.2718   13.0467 C.ar    1  UNL1        0.0000
   2299 C          35.3692    5.2245    5.6056 C.3     1  UNL1        0.0000
   2300 C          30.8738   -2.0334    7.5402 C.2     1  UNL1        0.0000
   2301 C          36.2347   -4.2016   13.1012 C.2     1  UNL1        0.0000
   2302 C          33.8148   11.7116    0.0497 C.2     1  UNL1        0.0000
   2303 C          37.4276   -0.4663   13.0430 C.2     1  UNL1        0.0000
   2304 C          26.6862    1.7347   13.0640 C.3     1  UNL1        0.0000
   2305 C          33.5016    4.4426    7.0787 C.ar    1  UNL1        0.0000
   2306 C          35.1440    2.4368    8.1546 C.ar    1  UNL1        0.0000
   2307 C          37.4428   10.8276    5.0587 C.2    23  UNL23       0.0000
   2308 C          24.0000   10.3196    6.0734 C.ar    1  UNL1        0.0000
   2309 C          40.8033    0.9195    1.2398 C.2    24  UNL24       0.0000
   2310 C          29.5107    6.6153   11.9630 C.ar    1  UNL1        0.0000
   2311 C          27.6582    7.7305    1.1102 C.2    18  UNL18       0.0000
   2312 C          24.6674    1.0220   11.8218 C.ar    1  UNL1        0.0000
   2313 C          39.4600    9.4696    5.1127 C.2    23  UNL23       0.0000
   2314 C          45.0099   -2.6946    6.0174 C.3    26  UNL26       0.0000
   2315 C          35.6514    3.2980    7.1812 C.ar    1  UNL1        0.0000
   2316 C          32.9993    3.5787    8.0529 C.ar    1  UNL1        0.0000
   2317 C          39.3805    0.4896   11.7534 C.3     1  UNL1        0.0000
   2318 C          28.9296    8.2550    1.1525 C.2    18  UNL18       0.0000
   2319 C          36.4568   -6.3885   11.9106 C.3     1  UNL1        0.0000
   2320 C          40.8742   -0.4796    1.3189 C.2    24  UNL24       0.0000
   2321 N          40.9570   -1.0777    2.5559 N.pl3  24  UNL24       0.0000
   2322 N          38.8012    0.2882   10.5174 N.3     1  UNL1        0.0000
   2323 N          40.0200    4.7573    7.6391 N.3     1  UNL1        0.0000
   2324 N          38.4374   -4.0420    9.2844 N.pl3   1  UNL1        0.0000
   2325 O          39.2533    5.0226    5.0765 O.2     1  UNL1        0.0000
   2326 O          28.9648    1.4237    8.0200 O.3     1  UNL1        0.0000
   2327 O          36.3640   -2.4564    9.6957 O.3     1  UNL1        0.0000
   2328 O          32.4448    9.8719    3.4226 O.3     1  UNL1        0.0000
   2329 O          33.3378    8.5131    5.0021 O.3     1  UNL1        0.0000
   2330 O          34.7955   -2.2647    8.0781 O.3     1  UNL1        0.0000
   2331 O          40.8430    4.7557    3.4898 O.2     1  UNL1        0.0000
   2332 O          28.1150    2.7798    9.6244 O.3     1  UNL1        0.0000
   2333 O          38.1754    4.4091    2.5052 O.3     1  UNL1        0.0000
   2334 O          30.6508    1.9937   10.1096 O.3     1  UNL1        0.0000
   2335 O          39.0365    6.7272    2.9532 O.3     1  UNL1        0.0000
   2336 O          28.9625    0.2085   10.6096 O.3     1  UNL1        0.0000
   2337 O          33.6784   -2.8372   10.6743 O.3     1  UNL1        0.0000
   2338 O          34.9882    9.1219    2.9093 O.3     1  UNL1        0.0000
   2339 O          34.5504   -0.5433   10.2080 O.3     1  UNL1        0.0000
   2340 O          33.3413    7.3070    2.3989 O.3     1  UNL1        0.0000
   2341 O          36.5939    5.0877    5.2443 O.3     1  UNL1        0.0000
   2342 O          30.1826   -1.0225    7.9235 O.2     1  UNL1        0.0000
   2343 O          36.0852   -3.6099   11.9620 O.2     1  UNL1        0.0000
   2344 O          33.7623   11.0064    1.1444 O.2     1  UNL1        0.0000
   2345 O          36.7897   -0.7955   11.9563 O.2     1  UNL1        0.0000
   2346 O          31.5913    9.0940    1.0941 O.3     1  UNL1        0.0000
   2347 O          32.0477   -2.2879    7.9912 O.2     1  UNL1        0.0000
   2348 O          34.5930    6.1196    5.1176 O.3     1  UNL1        0.0000
   2349 O          41.2180    6.4527    1.0833 O.3     1  UNL1        0.0000
   2350 O          27.2706    1.9890   11.9440 O.3     1  UNL1        0.0000
   2351 O          40.5189    3.6723    1.1133 O.3     1  UNL1        0.0000
   2352 O          29.4758    3.8491   12.0151 O.3     1  UNL1        0.0000
   2353 O          36.2879    6.7356    3.0197 O.3     1  UNL1        0.0000
   2354 O          31.8718   -0.4361   10.0169 O.3     1  UNL1        0.0000
   2355 O          38.7667    5.6001    0.0716 O.3     1  UNL1        0.0000
   2356 O          29.7805    1.3023   13.0448 O.3     1  UNL1        0.0000
   2357 TI         24.8379   -5.1237   24.3754 Ti      1  UNL1        0.0000
   2358 TI         35.5090   -1.8559   14.9547 Ti      1  UNL1        0.0000
   2359 TI         29.0589   -8.9127   22.5273 Ti      1  UNL1        0.0000
   2360 TI         30.2179    0.3034   16.7587 Ti      1  UNL1        0.0000
   2361 TI         29.1509    1.9482   14.8622 Ti      1  UNL1        0.0000
   2362 TI         30.9657   -9.1035   24.4698 Ti      1  UNL1        0.0000
   2363 TI         25.8363   -6.8232   22.4763 Ti      1  UNL1        0.0000
   2364 TI         33.5222   -1.6250   16.8136 Ti      1  UNL1        0.0000
   2365 H          31.4532   -5.5865   21.6937 H       1  UNL1        0.0000
   2366 H          20.6814    2.9036   19.5885 H       1  UNL1        0.0000
   2367 H          32.1378    3.7715   17.7606 H      27  UNL27       0.0000
   2368 H          25.2026   -1.2112   24.1586 H       1  UNL1        0.0000
   2369 H          36.4550   -5.7318   15.2654 H       1  UNL1        0.0000
   2370 H          20.9046   -6.0173   24.0139 H       1  UNL1        0.0000
   2371 H          38.8204    0.2647   15.1394 H      28  UNK28       0.0000
   2372 H          32.0790  -13.1011   24.0728 H       1  UNL1        0.0000
   2373 H          25.1172    1.2170   15.2060 H       1  UNL1        0.0000
   2374 H          32.3632   -4.0350   19.9372 H       1  UNL1        0.0000
   2375 H          27.6610   -3.5688   21.5163 H       1  UNL1        0.0000
   2376 H          40.1471   -9.0674   19.4887 H      20  UNL20       0.0000
   2377 H          25.3790   -6.9073   26.0944 H       1  UNL1        0.0000
   2378 H          33.6335   -2.1617   13.2649 H       1  UNL1        0.0000
   2379 H          31.4677   -9.7458   18.9550 H       1  UNL1        0.0000
   2380 H          28.4518    2.0750   20.3897 H       1  UNL1        0.0000
   2381 H          21.6463   -3.5780   22.1477 H       1  UNL1        0.0000
   2382 H          38.3474   -3.8458   17.2425 H       1  UNL1        0.0000
   2383 H          23.9777   -4.9405   18.7991 H       1  UNL1        0.0000
   2384 H          26.0023    3.6642   17.2352 H       1  UNL1        0.0000
   2385 H          29.4396    5.0618   15.7198 H       1  UNL1        0.0000
   2386 H          36.3743   -7.7564   16.4660 H       1  UNL1        0.0000
   2387 H          32.3129    0.0582   15.4080 H       1  UNL1        0.0000
   2388 H          27.9217   -7.1046   23.8294 H       1  UNL1        0.0000
   2389 H          35.1214   -7.0204   22.8387 H       1  UNL1        0.0000
   2390 H          33.6617   -7.5417   23.5936 H       1  UNL1        0.0000
   2391 H          35.5347   -2.5682   21.7428 H       1  UNL1        0.0000
   2392 H          34.9438   -2.2277   20.1279 H       1  UNL1        0.0000
   2393 H          34.8043  -11.9890   22.6444 H       1  UNL1        0.0000
   2394 H          33.4902  -10.9342   23.1105 H       1  UNL1        0.0000
   2395 H          29.1177   -5.3276   22.4663 H       1  UNL1        0.0000
   2396 H          28.5700   -2.0122   19.7588 H       1  UNL1        0.0000
   2397 H          33.4472    1.8302   16.9556 H      27  UNL27       0.0000
   2398 H          35.7053    1.3708   17.8549 H      27  UNL27       0.0000
   2399 C          36.1284   -2.5800   17.8139 C.2     1  UNL1        0.0000
   2400 C          23.8529   -4.8925   21.5341 C.3     1  UNL1        0.0000
   2401 C          31.6678   -9.8318   21.5868 C.3     1  UNL1        0.0000
   2402 C          28.2198    2.2042   17.7315 C.3     1  UNL1        0.0000
   2403 C          37.0505   -3.1540   18.8033 C.2     1  UNL1        0.0000
   2404 C          22.8944   -4.2991   20.5632 C.ar    1  UNL1        0.0000
   2405 C          32.6235  -10.4119   20.6336 C.2     1  UNL1        0.0000
   2406 C          27.3136    2.8184   18.7372 C.ar    1  UNL1        0.0000
   2407 C          36.8072   -3.0894   20.2112 C.3     1  UNL1        0.0000
   2408 C          23.1070   -4.4098   19.1738 C.ar    1  UNL1        0.0000
   2409 C          33.7812  -11.1330   21.0793 C.2     1  UNL1        0.0000
   2410 C          26.1901    3.5533   18.2994 C.ar    1  UNL1        0.0000
   2411 C          27.5814    2.6550   20.0904 C.ar    1  UNL1        0.0000
   2412 C          32.3636  -10.2868   19.2512 C.3     1  UNL1        0.0000
   2413 C          38.2052   -3.8125   18.3203 C.3     1  UNL1        0.0000
   2414 C          21.7736   -3.6460   21.0689 C.ar    1  UNL1        0.0000
   2415 C          30.5199   -2.9318   19.7498 C.ar    1  UNL1        0.0000
   2416 C          29.5083   -4.6591   21.7011 C.ar    1  UNL1        0.0000
   2417 C          33.8676    2.4870   17.7154 C.2    27  UNL27       0.0000
   2418 C          25.9762  -10.1839   19.6385 C.2     1  UNL1        0.0000
   2419 C          36.4213   -5.6509   13.1216 C.2     1  UNL1        0.0000
   2420 C          29.5453    5.9082   13.1989 C.ar    1  UNL1        0.0000
   2421 C          34.3903   -7.0438   26.1001 C.2     1  UNL1        0.0000
   2422 C          20.9865   -5.9674   26.1570 C.ar    1  UNL1        0.0000
   2423 C          31.0567   -2.0147   18.7159 C.3     1  UNL1        0.0000
   2424 C          26.5613   -9.2726   20.6505 C.2     1  UNL1        0.0000
   2425 C          31.9222  -11.4408   26.2114 C.2     1  UNL1        0.0000
   2426 C          29.5023    4.4724   13.1600 C.3     1  UNL1        0.0000
   2427 C          33.1150   -7.7055   26.1533 C.2     1  UNL1        0.0000
   2428 C          22.3736   -5.5045   26.1743 C.3     1  UNL1        0.0000
   2429 C          29.1891   -2.7966   20.1890 C.ar    1  UNL1        0.0000
   2430 C          30.8314   -4.8024   21.2649 C.ar    1  UNL1        0.0000
   2431 C          33.1302    3.5884   18.1689 C.2    27  UNL27       0.0000
   2432 C          19.6874    3.0804   19.1837 C.ar    1  UNL1        0.0000
   2433 C          36.4908   -6.3197   14.3501 C.2     1  UNL1        0.0000
   2434 C          25.1981   -0.6239   25.0733 C.ar    1  UNL1        0.0000
   2435 C          23.3457    0.4913   14.2205 C.ar    1  UNL1        0.0000
   2436 C          20.3549   -6.2172   24.9321 C.ar    1  UNL1        0.0000
   2437 C          35.1475    2.2304   18.2230 C.2    27  UNL27       0.0000
   2438 C          40.6974   -9.9338   19.1277 C.3    29  UNL29       0.0000
   2439 C          31.3388   -3.9412   20.2915 C.ar    1  UNL1        0.0000
   2440 C          28.6868   -3.6605   21.1632 C.ar    1  UNL1        0.0000
   2441 C          35.0679   -6.7496   24.8637 C.3     1  UNL1        0.0000
   2442 C          24.6171    1.0158   14.2627 C.ar    1  UNL1        0.0000
   2443 C          32.1442  -13.6277   25.0209 C.3     1  UNL1        0.0000
   2444 C          36.5617   -7.7188   14.4292 C.2     1  UNL1        0.0000
   2445 N          36.6445   -8.3169   15.6662 N.pl3   1  UNL1        0.0000
   2446 N          34.4887   -6.9510   23.6277 N.3     1  UNL1        0.0000
   2447 N          35.7074   -2.4819   20.7494 N.3     1  UNL1        0.0000
   2448 N          34.1249  -11.2812   22.3946 N.pl3   1  UNL1        0.0000
   2449 O          34.9408   -2.2166   18.1868 O.2     1  UNL1        0.0000
   2450 O          24.6523   -5.8155   21.1303 O.3     1  UNL1        0.0000
   2451 O          32.0515   -9.6956   22.8060 O.3     1  UNL1        0.0000
   2452 O          28.1323    2.6327   16.5329 O.3     1  UNL1        0.0000
   2453 O          29.0252    1.2739   18.1124 O.3     1  UNL1        0.0000
   2454 O          30.4830   -9.5039   21.1883 O.3     1  UNL1        0.0000
   2455 O          36.5305   -2.4835   16.6000 O.2     1  UNL1        0.0000
   2456 O          23.8025   -4.4594   22.7347 O.3     1  UNL1        0.0000
   2457 O          33.8629   -2.8301   15.6155 O.3     1  UNL1        0.0000
   2458 O          26.3383   -5.2455   23.2199 O.3     1  UNL1        0.0000
   2459 O          34.7240   -0.5120   16.0635 O.3     1  UNL1        0.0000
   2460 O          24.6500   -7.0307   23.7199 O.3     1  UNL1        0.0000
   2461 O          29.3659  -10.0764   23.7846 O.3     1  UNL1        0.0000
   2462 O          30.6756    1.8827   16.0195 O.3     1  UNL1        0.0000
   2463 O          30.2379   -7.7825   23.3183 O.3     1  UNL1        0.0000
   2464 O          29.0287    0.0678   15.5092 O.3     1  UNL1        0.0000
   2465 O          32.2813   -2.1515   18.3546 O.3     1  UNL1        0.0000
   2466 O          25.8701   -8.2617   21.0338 O.2     1  UNL1        0.0000
   2467 O          31.7726  -10.8492   25.0723 O.2     1  UNL1        0.0000
   2468 O          29.4497    3.7672   14.2546 O.3     1  UNL1        0.0000
   2469 O          32.4772   -8.0347   25.0666 O.2     1  UNL1        0.0000
   2470 O          27.2788    1.8548   14.2044 O.3     1  UNL1        0.0000
   2471 O          27.7352   -9.5271   21.1014 O.2     1  UNL1        0.0000
   2472 O          30.2805   -1.1196   18.2279 O.3     1  UNL1        0.0000
   2473 O          36.9054   -0.7865   14.1936 O.2     1  UNL1        0.0000
   2474 O          22.9581   -5.2502   25.0543 O.3     1  UNL1        0.0000
   2475 O          36.2064   -3.5669   14.2236 O.2     1  UNL1        0.0000
   2476 O          25.1633   -3.3901   25.1254 O.3     1  UNL1        0.0000
   2477 O          31.9754   -0.5036   16.1299 O.3     1  UNL1        0.0000
   2478 O          27.5592   -7.6753   23.1272 O.3     1  UNL1        0.0000
   2479 O          34.4542   -1.6391   13.1819 O.3     1  UNL1        0.0000
   2480 O          25.4680   -5.9369   26.1551 O.3     1  UNL1        0.0000
   2481 TI         20.5254  -12.3629   37.4857 Ti      1  UNL1        0.0000
   2482 TI         31.1964   -9.0951   28.0650 Ti      1  UNL1        0.0000
   2483 TI         24.7463  -16.1519   35.6375 Ti      1  UNL1        0.0000
   2484 TI         25.9054   -6.9358   29.8690 Ti      1  UNL1        0.0000
   2485 TI         24.8383   -5.2910   27.9725 Ti      1  UNL1        0.0000
   2486 TI         26.6532  -16.3427   37.5800 Ti      1  UNL1        0.0000
   2487 TI         21.5238  -14.0624   35.5866 Ti      1  UNL1        0.0000
   2488 TI         29.2096   -8.8642   29.9238 Ti      1  UNL1        0.0000
   2489 H          27.1406  -12.8257   34.8039 H       1  UNL1        0.0000
   2490 H          16.3689   -4.3356   32.6988 H       1  UNL1        0.0000
   2491 H          27.8252   -3.4677   30.8709 H      30  UNL30       0.0000
   2492 H          20.8900   -8.4504   37.2689 H      21  UNK21       0.0000
   2493 H          32.1425  -12.9710   28.3757 H       1  UNL1        0.0000
   2494 H          16.5921  -13.2565   37.1242 H       1  UNL1        0.0000
   2495 H          34.5078   -6.9745   28.2496 H      31  UNK31       0.0000
   2496 H          27.7664  -20.3403   37.1831 H      23  UNL23       0.0000
   2497 H          20.8047   -6.0222   28.3163 H       1  UNL1        0.0000
   2498 H          28.0506  -11.2742   33.0474 H       1  UNL1        0.0000
   2499 H          23.3484  -10.8080   34.6266 H       1  UNL1        0.0000
   2500 H          35.8346  -16.3066   32.5990 H      22  UNL22       0.0000
   2501 H          21.0665  -14.1465   39.2047 H       1  UNL1        0.0000
   2502 H          29.3210   -9.4009   26.3751 H       1  UNL1        0.0000
   2503 H          27.1551  -16.9850   32.0653 H       1  UNL1        0.0000
   2504 H          24.1393   -5.1642   33.5000 H       1  UNL1        0.0000
   2505 H          17.3338  -10.8172   35.2580 H       1  UNL1        0.0000
   2506 H          34.0349  -11.0850   30.3527 H       1  UNL1        0.0000
   2507 H          19.6652  -12.1797   31.9094 H       1  UNL1        0.0000
   2508 H          21.6897   -3.5750   30.3455 H       1  UNL1        0.0000
   2509 H          25.1271   -2.1774   28.8301 H       1  UNL1        0.0000
   2510 H          32.0617  -14.9956   29.5763 H       1  UNL1        0.0000
   2511 H          28.0003   -7.1810   28.5183 H       1  UNL1        0.0000
   2512 H          23.6092  -14.3438   36.9397 H       1  UNL1        0.0000
   2513 H          30.8089  -14.2596   35.9489 H       1  UNL1        0.0000
   2514 H          29.3492  -14.7809   36.7038 H       1  UNL1        0.0000
   2515 H          31.2222   -9.8074   34.8530 H       1  UNL1        0.0000
   2516 H          30.6313   -9.4669   33.2382 H       1  UNL1        0.0000
   2517 H          30.4918  -19.2282   35.7547 H       1  UNL1        0.0000
   2518 H          29.1777  -18.1734   36.2207 H       1  UNL1        0.0000
   2519 H          24.8052  -12.5668   35.5766 H       1  UNL1        0.0000
   2520 H          24.2575   -9.2514   32.8691 H       1  UNL1        0.0000
   2521 H          29.1346   -5.4090   30.0659 H      30  UNL30       0.0000
   2522 H          31.3927   -5.8684   30.9651 H      30  UNL30       0.0000
   2523 C          31.8159   -9.8192   30.9242 C.2     1  UNL1        0.0000
   2524 C          19.5404  -12.1317   34.6444 C.3     1  UNL1        0.0000
   2525 C          27.3552  -17.0710   34.6971 C.3     1  UNL1        0.0000
   2526 C          23.9072   -5.0350   30.8418 C.3     1  UNL1        0.0000
   2527 C          32.7380  -10.3932   31.9136 C.2     1  UNL1        0.0000
   2528 C          18.5818  -11.5383   33.6734 C.ar    1  UNL1        0.0000
   2529 C          28.3109  -17.6511   33.7439 C.2     1  UNL1        0.0000
   2530 C          23.0010   -4.4208   31.8474 C.ar    1  UNL1        0.0000
   2531 C          32.4946  -10.3286   33.3215 C.3     1  UNL1        0.0000
   2532 C          18.7945  -11.6490   32.2841 C.ar    1  UNL1        0.0000
   2533 C          29.4687  -18.3722   34.1896 C.2     1  UNL1        0.0000
   2534 C          21.8776   -3.6859   31.4097 C.ar    1  UNL1        0.0000
   2535 C          23.2689   -4.5842   33.2006 C.ar    1  UNL1        0.0000
   2536 C          28.0510  -17.5261   32.3615 C.3     1  UNL1        0.0000
   2537 C          33.8926  -11.0517   31.4306 C.3     1  UNL1        0.0000
   2538 C          17.4611  -10.8852   34.1792 C.ar    1  UNL1        0.0000
   2539 C          26.2073  -10.1710   32.8601 C.ar    1  UNL1        0.0000
   2540 C          25.1958  -11.8983   34.8114 C.ar    1  UNL1        0.0000
   2541 C          29.5550   -4.7522   30.8257 C.2    30  UNL30       0.0000
   2542 C          21.6636  -17.4231   32.7488 C.2     1  UNL1        0.0000
   2543 C          32.1088  -12.8901   26.2319 C.2     1  UNL1        0.0000
   2544 C          25.2327   -1.3310   26.3092 C.ar    1  UNL1        0.0000
   2545 C          30.0778  -14.2830   39.2104 C.2     1  UNL1        0.0000
   2546 C          16.6740  -13.2066   39.2673 C.2     1  UNL1        0.0000
   2547 C          26.7442   -9.2539   31.8261 C.3     1  UNL1        0.0000
   2548 C          22.2487  -16.5118   33.7608 C.2     1  UNL1        0.0000
   2549 C          27.6097  -18.6800   39.3217 C.3     1  UNL1        0.0000
   2550 C          25.1897   -2.7668   26.2702 C.3     1  UNL1        0.0000
   2551 C          28.8025  -14.9447   39.2636 C.2     1  UNL1        0.0000
   2552 C          18.0611  -12.7437   39.2845 C.2     1  UNL1        0.0000
   2553 C          24.8765  -10.0358   33.2993 C.ar    1  UNL1        0.0000
   2554 C          26.5189  -12.0416   34.3751 C.ar    1  UNL1        0.0000
   2555 C          28.8177   -3.6508   31.2792 C.2    30  UNL30       0.0000
   2556 C          15.3749   -4.1588   32.2939 C.ar    1  UNL1        0.0000
   2557 C          32.1782  -13.5589   27.4604 C.2     1  UNL1        0.0000
   2558 C          20.8856   -7.8631   38.1835 C.2    21  UNK21       0.0000
   2559 C          19.0332   -6.7479   27.3308 C.ar    1  UNL1        0.0000
   2560 C          16.0424  -13.4564   38.0424 C.2     1  UNL1        0.0000
   2561 C          30.8350   -5.0088   31.3332 C.2    30  UNL30       0.0000
   2562 C          36.3848  -17.1730   32.2379 C.3    32  UNL32       0.0000
   2563 C          27.0263  -11.1804   33.4017 C.ar    1  UNL1        0.0000
   2564 C          24.3743  -10.8997   34.2734 C.ar    1  UNL1        0.0000
   2565 C          30.7554  -13.9888   37.9739 C.3     1  UNL1        0.0000
   2566 C          20.3045   -6.2234   27.3730 C.ar    1  UNL1        0.0000
   2567 C          27.8317  -20.8669   38.1312 C.3    33  UNL33       0.0000
   2568 C          32.2492  -14.9580   27.5394 C.2     1  UNL1        0.0000
   2569 N          32.3320  -15.5561   28.7764 N.pl3   1  UNL1        0.0000
   2570 N          30.1762  -14.1902   36.7380 N.3     1  UNL1        0.0000
   2571 N          31.3949   -9.7211   33.8596 N.3     1  UNL1        0.0000
   2572 N          29.8124  -18.5204   35.5049 N.pl3   1  UNL1        0.0000
   2573 O          30.6283   -9.4558   31.2971 O.2     1  UNL1        0.0000
   2574 O          20.3398  -13.0547   34.2406 O.3     1  UNL1        0.0000
   2575 O          27.7390  -16.9348   35.9163 O.3     1  UNL1        0.0000
   2576 O          23.8197   -4.6065   29.6432 O.3     1  UNL1        0.0000
   2577 O          24.7127   -5.9653   31.2227 O.3     1  UNL1        0.0000
   2578 O          26.1705  -16.7431   34.2986 O.3     1  UNL1        0.0000
   2579 O          32.2179   -9.7227   29.7103 O.2     1  UNL1        0.0000
   2580 O          19.4899  -11.6986   35.8450 O.3     1  UNL1        0.0000
   2581 O          29.5504  -10.0693   28.7258 O.3     1  UNL1        0.0000
   2582 O          22.0258  -12.4847   36.3302 O.3     1  UNL1        0.0000
   2583 O          30.4115   -7.7512   29.1737 O.3     1  UNL1        0.0000
   2584 O          20.3375  -14.2699   36.8302 O.3     1  UNL1        0.0000
   2585 O          25.0533  -17.3156   36.8949 O.3     1  UNL1        0.0000
   2586 O          26.3631   -5.3565   29.1298 O.3     1  UNL1        0.0000
   2587 O          25.9254  -15.0217   36.4286 O.3     1  UNL1        0.0000
   2588 O          24.7162   -7.1714   28.6194 O.3     1  UNL1        0.0000
   2589 O          27.9688   -9.3907   31.4649 O.3     1  UNL1        0.0000
   2590 O          21.5576  -15.5009   34.1441 O.2     1  UNL1        0.0000
   2591 O          27.4601  -18.0884   38.1826 O.3     1  UNL1        0.0000
   2592 O          25.1372   -3.4720   27.3649 O.3     1  UNL1        0.0000
   2593 O          28.1646  -15.2739   38.1769 O.2     1  UNL1        0.0000
   2594 O          22.9662   -5.3844   27.3147 O.3     1  UNL1        0.0000
   2595 O          23.4226  -16.7663   34.2117 O.2     1  UNL1        0.0000
   2596 O          25.9680   -8.3588   31.3382 O.3     1  UNL1        0.0000
   2597 O          32.5929   -8.0257   27.3039 O.2     1  UNL1        0.0000
   2598 O          18.6456  -12.4894   38.1645 O.2     1  UNL1        0.0000
   2599 O          31.8939  -10.8061   27.3338 O.2     1  UNL1        0.0000
   2600 O          20.8508  -10.6293   38.2357 O.3     1  UNL1        0.0000
   2601 O          27.6629   -7.7428   29.2402 O.3     1  UNL1        0.0000
   2602 O          23.2467  -14.9145   36.2375 O.3     1  UNL1        0.0000
   2603 O          30.1417   -8.8783   26.2921 O.3     1  UNL1        0.0000
   2604 O          21.1554  -13.1761   39.2653 O.3     1  UNL1        0.0000
   2605 TI         22.1285   16.4923   11.2652 Ti      1  UNL1        0.0000
   2606 TI         32.7995   19.7601    1.8444 Ti      1  UNL1        0.0000
   2607 TI         26.3495   12.7033    9.4170 Ti      1  UNL1        0.0000
   2608 TI         27.5085   21.9194    3.6484 Ti      1  UNL1        0.0000
   2609 TI         26.4415   23.5642    1.7520 Ti      1  UNL1        0.0000
   2610 TI         28.2563   12.5125   11.3595 Ti      1  UNL1        0.0000
   2611 TI         23.1269   14.7928    9.3660 Ti      1  UNL1        0.0000
   2612 TI         30.8128   19.9910    3.7033 Ti      1  UNL1        0.0000
   2613 H          28.7438   16.0295    8.5834 H       1  UNL1        0.0000
   2614 H          17.9720   24.5196    6.4782 H       1  UNL1        0.0000
   2615 H          29.4284   25.3875    4.6503 H      34  UNL34       0.0000
   2616 H          22.4932   20.4048   11.0484 H       1  UNL1        0.0000
   2617 H          33.7456   15.8842    2.1552 H       1  UNL1        0.0000
   2618 H          18.1952   15.5988   10.9036 H       1  UNL1        0.0000
   2619 H          36.1110   21.8807    2.0291 H      35  UNK35       0.0000
   2620 H          29.3695    8.5149   10.9625 H       1  UNL1        0.0000
   2621 H          22.4078   22.8330    2.0957 H      24  UNL24       0.0000
   2622 H          29.6537   17.5810    6.8269 H       1  UNL1        0.0000
   2623 H          24.9515   18.0472    8.4060 H       1  UNL1        0.0000
   2624 H          37.4377   12.5486    6.3785 H      23  UNL23       0.0000
   2625 H          22.6696   14.7087   12.9842 H       1  UNL1        0.0000
   2626 H          30.9241   19.4543    0.1546 H       1  UNL1        0.0000
   2627 H          28.7583   11.8702    5.8447 H       1  UNL1        0.0000
   2628 H          25.7424   23.6910    7.2795 H       1  UNL1        0.0000
   2629 H          18.9369   18.0380    9.0374 H       1  UNL1        0.0000
   2630 H          35.6380   17.7702    4.1322 H       1  UNL1        0.0000
   2631 H          21.2683   16.6756    5.6889 H       1  UNL1        0.0000
   2632 H          23.2929   25.2802    4.1249 H       1  UNL1        0.0000
   2633 H          26.7302   26.6778    2.6096 H       1  UNL1        0.0000
   2634 H          33.6649   13.8596    3.3557 H       1  UNL1        0.0000
   2635 H          29.6035   21.6742    2.2978 H       1  UNL1        0.0000
   2636 H          25.2123   14.5114   10.7192 H       1  UNL1        0.0000
   2637 H          32.4120   14.5956    9.7284 H       1  UNL1        0.0000
   2638 H          30.9523   14.0743   10.4833 H       1  UNL1        0.0000
   2639 H          32.8253   19.0478    8.6325 H       1  UNL1        0.0000
   2640 H          32.2344   19.3883    7.0176 H       1  UNL1        0.0000
   2641 H          32.0949    9.6270    9.5342 H       1  UNL1        0.0000
   2642 H          30.7808   10.6818   10.0002 H       1  UNL1        0.0000
   2643 H          26.4083   16.2884    9.3560 H       1  UNL1        0.0000
   2644 H          25.8606   19.6038    6.6485 H       1  UNL1        0.0000
   2645 H          30.7378   23.4462    3.8453 H      34  UNL34       0.0000
   2646 H          32.9959   22.9868    4.7446 H      34  UNL34       0.0000
   2647 C          33.4190   19.0360    4.7037 C.2     1  UNL1        0.0000
   2648 C          21.1435   16.7235    8.4239 C.3     1  UNL1        0.0000
   2649 C          28.9584   11.7842    8.4766 C.3     1  UNL1        0.0000
   2650 C          25.5104   23.8202    4.6213 C.3     1  UNL1        0.0000
   2651 C          34.3411   18.4620    5.6930 C.2     1  UNL1        0.0000
   2652 C          20.1850   17.3169    7.4529 C.ar    1  UNL1        0.0000
   2653 C          29.9141   11.2041    7.5233 C.ar    1  UNL1        0.0000
   2654 C          24.6042   24.4344    5.6269 C.ar    1  UNL1        0.0000
   2655 C          34.0978   18.5266    7.1009 C.3     1  UNL1        0.0000
   2656 C          20.3976   17.2062    6.0635 C.ar    1  UNL1        0.0000
   2657 C          31.0718   10.4830    7.9691 C.ar    1  UNL1        0.0000
   2658 C          23.4807   25.1693    5.1891 C.ar    1  UNL1        0.0000
   2659 C          24.8720   24.2710    6.9801 C.ar    1  UNL1        0.0000
   2660 C          29.6542   11.3292    6.1410 C.ar    1  UNL1        0.0000
   2661 C          35.4958   17.8035    5.2100 C.3     1  UNL1        0.0000
   2662 C          19.0642   17.9700    7.9586 C.ar    1  UNL1        0.0000
   2663 C          27.8105   18.6842    6.6396 C.ar    1  UNL1        0.0000
   2664 C          26.7989   16.9569    8.5908 C.ar    1  UNL1        0.0000
   2665 C          31.1582   24.1031    4.6051 C.2    34  UNL34       0.0000
   2666 C          23.2668   11.4321    6.5282 C.ar    1  UNL1        0.0000
   2667 C          33.7119   15.9651    0.0113 C.3     1  UNL1        0.0000
   2668 C          26.8359   27.5243    0.0887 C.2     1  UNL1        0.0000
   2669 C          31.6809   14.5722   12.9898 C.2     1  UNL1        0.0000
   2670 C          18.2771   15.6486   13.0467 C.ar    1  UNL1        0.0000
   2671 C          28.3473   19.6013    5.6056 C.3     1  UNL1        0.0000
   2672 C          23.8518   12.3434    7.5402 C.3     1  UNL1        0.0000
   2673 C          29.2128   10.1752   13.1012 C.3     1  UNL1        0.0000
   2674 C          26.7928   26.0884    0.0497 C.2     1  UNL1        0.0000
   2675 C          30.4056   13.9105   13.0430 C.2     1  UNL1        0.0000
   2676 C          19.6642   16.1115   13.0640 C.3     1  UNL1        0.0000
   2677 C          26.4797   18.8194    7.0787 C.ar    1  UNL1        0.0000
   2678 C          28.1220   16.8136    8.1546 C.ar    1  UNL1        0.0000
   2679 C          30.4208   25.2044    5.0587 C.2    34  UNL34       0.0000
   2680 C          16.9780   24.6964    6.0734 C.ar    1  UNL1        0.0000
   2681 C          33.7814   15.2963    1.2398 C.2     1  UNL1        0.0000
   2682 C          22.4887   20.9921   11.9630 C.ar    1  UNL1        0.0000
   2683 C          20.6363   22.1073    1.1102 C.2    24  UNL24       0.0000
   2684 C          17.6455   15.3988   11.8218 C.ar    1  UNL1        0.0000
   2685 C          32.4381   23.8465    5.1127 C.2    34  UNL34       0.0000
   2686 C          37.9880   11.6822    6.0174 C.2    23  UNL23       0.0000
   2687 C          28.6294   17.6748    7.1812 C.ar    1  UNL1        0.0000
   2688 C          25.9774   17.9555    8.0529 C.ar    1  UNL1        0.0000
   2689 C          32.3585   14.8664   11.7534 C.3     1  UNL1        0.0000
   2690 C          21.9077   22.6318    1.1525 C.2    24  UNL24       0.0000
   2691 C          29.4348    7.9883   11.9106 C.ar    1  UNL1        0.0000
   2692 C          33.8523   13.8972    1.3189 C.2     1  UNL1        0.0000
   2693 N          33.9351   13.2992    2.5559 N.pl3   1  UNL1        0.0000
   2694 N          31.7793   14.6650   10.5174 N.3     1  UNL1        0.0000
   2695 N          32.9980   19.1342    7.6391 N.3     1  UNL1        0.0000
   2696 N          31.4155   10.3348    9.2844 N.pl3   1  UNL1        0.0000
   2697 O          32.2314   19.3994    5.0765 O.2     1  UNL1        0.0000
   2698 O          21.9429   15.8005    8.0200 O.3     1  UNL1        0.0000
   2699 O          29.3421   11.9204    9.6957 O.3     1  UNL1        0.0000
   2700 O          25.4229   24.2487    3.4226 O.3     1  UNL1        0.0000
   2701 O          26.3158   22.8899    5.0021 O.3     1  UNL1        0.0000
   2702 O          27.7736   12.1121    8.0781 O.3     1  UNL1        0.0000
   2703 O          33.8211   19.1325    3.4898 O.2     1  UNL1        0.0000
   2704 O          21.0931   17.1566    9.6244 O.3     1  UNL1        0.0000
   2705 O          31.1535   18.7859    2.5052 O.3     1  UNL1        0.0000
   2706 O          23.6289   16.3706   10.1096 O.3     1  UNL1        0.0000
   2707 O          32.0146   21.1040    2.9532 O.3     1  UNL1        0.0000
   2708 O          21.9406   14.5853   10.6096 O.3     1  UNL1        0.0000
   2709 O          26.6565   11.5396   10.6743 O.3     1  UNL1        0.0000
   2710 O          27.9662   23.4987    2.9093 O.3     1  UNL1        0.0000
   2711 O          27.5285   13.8335   10.2080 O.3     1  UNL1        0.0000
   2712 O          26.3193   21.6838    2.3989 O.3     1  UNL1        0.0000
   2713 O          29.5719   19.4645    5.2443 O.3     1  UNL1        0.0000
   2714 O          23.1607   13.3543    7.9235 O.3     1  UNL1        0.0000
   2715 O          29.0632   10.7669   11.9620 O.3     1  UNL1        0.0000
   2716 O          26.7403   25.3832    1.1444 O.2     1  UNL1        0.0000
   2717 O          29.7678   13.5813   11.9563 O.2     1  UNL1        0.0000
   2718 O          24.5694   23.4708    1.0941 O.3     1  UNL1        0.0000
   2719 O          25.0258   12.0889    7.9912 O.3     1  UNL1        0.0000
   2720 O          27.5711   20.4964    5.1176 O.3     1  UNL1        0.0000
   2721 O          34.1960   20.8295    1.0833 O.3     1  UNL1        0.0000
   2722 O          20.2487   16.3658   11.9440 O.3     1  UNL1        0.0000
   2723 O          33.4970   18.0491    1.1133 O.3     1  UNL1        0.0000
   2724 O          22.4539   18.2259   12.0151 O.3     1  UNL1        0.0000
   2725 O          29.2660   21.1124    3.0197 O.3     1  UNL1        0.0000
   2726 O          24.8498   13.9407   10.0169 O.3     1  UNL1        0.0000
   2727 O          31.7448   19.9769    0.0716 O.3     1  UNL1        0.0000
   2728 O          22.7586   15.6791   13.0448 O.3     1  UNL1        0.0000
   2729 TI         17.8160    9.2531   24.3754 Ti      1  UNL1        0.0000
   2730 TI         28.4870   12.5209   14.9547 Ti      1  UNL1        0.0000
   2731 TI         22.0369    5.4641   22.5273 Ti      1  UNL1        0.0000
   2732 TI         23.1960   14.6802   16.7587 Ti      1  UNL1        0.0000
   2733 TI         22.1289   16.3250   14.8622 Ti      1  UNL1        0.0000
   2734 TI         23.9437    5.2733   24.4698 Ti      1  UNL1        0.0000
   2735 TI         18.8144    7.5536   22.4763 Ti      1  UNL1        0.0000
   2736 TI         26.5002   12.7518   16.8136 Ti      1  UNL1        0.0000
   2737 H          24.4312    8.7903   21.6937 H       1  UNL1        0.0000
   2738 H          13.6595   17.2804   19.5885 H       1  UNL1        0.0000
   2739 H          25.1158   18.1483   17.7606 H      36  UNL36       0.0000
   2740 H          18.1806   13.1656   24.1586 H       1  UNL1        0.0000
   2741 H          29.4331    8.6450   15.2654 H       1  UNL1        0.0000
   2742 H          13.8827    8.3596   24.0139 H       1  UNL1        0.0000
   2743 H          31.7984   14.6415   15.1394 H      37  UNK37       0.0000
   2744 H          25.0570    1.2757   24.0728 H       1  UNL1        0.0000
   2745 H          18.0953   15.5938   15.2060 H       1  UNL1        0.0000
   2746 H          25.3412   10.3418   19.9372 H       1  UNL1        0.0000
   2747 H          20.6390   10.8080   21.5163 H       1  UNL1        0.0000
   2748 H          33.1252    5.3094   19.4887 H      27  UNL27       0.0000
   2749 H          18.3570    7.4695   26.0944 H       1  UNL1        0.0000
   2750 H          26.6116   12.2151   13.2649 H       1  UNL1        0.0000
   2751 H          24.4457    4.6310   18.9550 H       1  UNL1        0.0000
   2752 H          21.4299   16.4518   20.3897 H       1  UNL1        0.0000
   2753 H          14.6244   10.7988   22.1477 H       1  UNL1        0.0000
   2754 H          31.3255   10.5310   17.2425 H       1  UNL1        0.0000
   2755 H          16.9558    9.4364   18.7991 H       1  UNL1        0.0000
   2756 H          18.9803   18.0410   17.2352 H       1  UNL1        0.0000
   2757 H          22.4177   19.4386   15.7198 H       1  UNL1        0.0000
   2758 H          29.3523    6.6204   16.4660 H       1  UNL1        0.0000
   2759 H          25.2909   14.4350   15.4080 H       1  UNL1        0.0000
   2760 H          20.8998    7.2722   23.8294 H       1  UNL1        0.0000
   2761 H          28.0995    7.3564   22.8387 H       1  UNL1        0.0000
   2762 H          26.6398    6.8351   23.5936 H       1  UNL1        0.0000
   2763 H          28.5128   11.8086   21.7428 H       1  UNL1        0.0000
   2764 H          27.9219   12.1491   20.1279 H       1  UNL1        0.0000
   2765 H          27.7824    2.3878   22.6444 H       1  UNL1        0.0000
   2766 H          26.4683    3.4426   23.1105 H       1  UNL1        0.0000
   2767 H          22.0958    9.0492   22.4663 H       1  UNL1        0.0000
   2768 H          21.5481   12.3646   19.7588 H       1  UNL1        0.0000
   2769 H          26.4252   16.2070   16.9556 H      36  UNL36       0.0000
   2770 H          28.6833   15.7476   17.8549 H      36  UNL36       0.0000
   2771 C          29.1065   11.7968   17.8139 C.2     1  UNL1        0.0000
   2772 C          16.8310    9.4843   21.5341 C.3     1  UNL1        0.0000
   2773 C          24.6458    4.5450   21.5868 C.3     1  UNL1        0.0000
   2774 C          21.1978   16.5810   17.7315 C.3     1  UNL1        0.0000
   2775 C          30.0286   11.2228   18.8033 C.2     1  UNL1        0.0000
   2776 C          15.8724   10.0777   20.5632 C.ar    1  UNL1        0.0000
   2777 C          25.6015    3.9649   20.6336 C.ar    1  UNL1        0.0000
   2778 C          20.2916   17.1952   18.7372 C.ar    1  UNL1        0.0000
   2779 C          29.7852   11.2874   20.2112 C.3     1  UNL1        0.0000
   2780 C          16.0851    9.9670   19.1738 C.ar    1  UNL1        0.0000
   2781 C          26.7593    3.2438   21.0793 C.ar    1  UNL1        0.0000
   2782 C          19.1682   17.9301   18.2994 C.ar    1  UNL1        0.0000
   2783 C          20.5595   17.0318   20.0904 C.ar    1  UNL1        0.0000
   2784 C          25.3416    4.0900   19.2512 C.ar    1  UNL1        0.0000
   2785 C          31.1832   10.5643   18.3203 C.3     1  UNL1        0.0000
   2786 C          14.7516   10.7308   21.0689 C.ar    1  UNL1        0.0000
   2787 C          23.4979   11.4450   19.7498 C.ar    1  UNL1        0.0000
   2788 C          22.4864    9.7177   21.7011 C.ar    1  UNL1        0.0000
   2789 C          26.8456   16.8639   17.7154 C.2    36  UNL36       0.0000
   2790 C          18.9542    4.1929   19.6385 C.ar    1  UNL1        0.0000
   2791 C          29.3994    8.7259   13.1216 C.ar    1  UNL1        0.0000
   2792 C          22.5233   20.2851   13.1989 C.ar    1  UNL1        0.0000
   2793 C          27.3684    7.3330   26.1001 C.2     1  UNL1        0.0000
   2794 C          13.9646    8.4094   26.1570 C.ar    1  UNL1        0.0000
   2795 C          24.0348   12.3621   18.7159 C.3     1  UNL1        0.0000
   2796 C          19.5393    5.1042   20.6505 C.3     1  UNL1        0.0000
   2797 C          24.9003    2.9360   26.2114 C.3     1  UNL1        0.0000
   2798 C          22.4803   18.8492   13.1600 C.3     1  UNL1        0.0000
   2799 C          26.0931    6.6713   26.1533 C.2     1  UNL1        0.0000
   2800 C          15.3517    8.8723   26.1743 C.3     1  UNL1        0.0000
   2801 C          22.1671   11.5802   20.1890 C.ar    1  UNL1        0.0000
   2802 C          23.8095    9.5744   21.2649 C.ar    1  UNL1        0.0000
   2803 C          26.1083   17.9652   18.1689 C.2    36  UNL36       0.0000
   2804 C          12.6655   17.4572   19.1837 C.ar    1  UNL1        0.0000
   2805 C          29.4688    8.0571   14.3501 C.ar    1  UNL1        0.0000
   2806 C          18.1762   13.7529   25.0733 C.ar    1  UNL1        0.0000
   2807 C          16.3238   14.8681   14.2205 C.ar    1  UNL1        0.0000
   2808 C          13.3330    8.1596   24.9321 C.ar    1  UNL1        0.0000
   2809 C          28.1256   16.6073   18.2230 C.2    36  UNL36       0.0000
   2810 C          33.6754    4.4430   19.1277 C.2    27  UNL27       0.0000
   2811 C          24.3169   10.4356   20.2915 C.ar    1  UNL1        0.0000
   2812 C          21.6649   10.7163   21.1632 C.ar    1  UNL1        0.0000
   2813 C          28.0460    7.6272   24.8637 C.3     1  UNL1        0.0000
   2814 C          17.5951   15.3926   14.2627 C.ar    1  UNL1        0.0000
   2815 C          25.1223    0.7491   25.0209 C.ar    1  UNL1        0.0000
   2816 C          29.5398    6.6580   14.4292 C.ar    1  UNL1        0.0000
   2817 N          29.6226    6.0599   15.6662 N.pl3   1  UNL1        0.0000
   2818 N          27.4668    7.4258   23.6277 N.3     1  UNL1        0.0000
   2819 N          28.6855   11.8950   20.7494 N.3     1  UNL1        0.0000
   2820 N          27.1030    3.0956   22.3946 N.pl3   1  UNL1        0.0000
   2821 O          27.9189   12.1602   18.1868 O.2     1  UNL1        0.0000
   2822 O          17.6304    8.5613   21.1303 O.3     1  UNL1        0.0000
   2823 O          25.0295    4.6812   22.8060 O.3     1  UNL1        0.0000
   2824 O          21.1103   17.0095   16.5329 O.3     1  UNL1        0.0000
   2825 O          22.0033   15.6507   18.1124 O.3     1  UNL1        0.0000
   2826 O          23.4610    4.8729   21.1883 O.3     1  UNL1        0.0000
   2827 O          29.5085   11.8933   16.6000 O.2     1  UNL1        0.0000
   2828 O          16.7805    9.9174   22.7347 O.3     1  UNL1        0.0000
   2829 O          26.8410   11.5467   15.6155 O.3     1  UNL1        0.0000
   2830 O          19.3164    9.1313   23.2199 O.3     1  UNL1        0.0000
   2831 O          27.7021   13.8648   16.0635 O.3     1  UNL1        0.0000
   2832 O          17.6281    7.3461   23.7199 O.3     1  UNL1        0.0000
   2833 O          22.3439    4.3004   23.7846 O.3     1  UNL1        0.0000
   2834 O          23.6537   16.2595   16.0195 O.3     1  UNL1        0.0000
   2835 O          23.2160    6.5943   23.3183 O.3     1  UNL1        0.0000
   2836 O          22.0068   14.4446   15.5092 O.3     1  UNL1        0.0000
   2837 O          25.2594   12.2253   18.3546 O.3     1  UNL1        0.0000
   2838 O          18.8481    6.1151   21.0338 O.3     1  UNL1        0.0000
   2839 O          24.7507    3.5277   25.0723 O.3     1  UNL1        0.0000
   2840 O          22.4278   18.1440   14.2546 O.3     1  UNL1        0.0000
   2841 O          25.4552    6.3421   25.0666 O.2     1  UNL1        0.0000
   2842 O          20.2568   16.2316   14.2044 O.3     1  UNL1        0.0000
   2843 O          20.7132    4.8497   21.1014 O.3     1  UNL1        0.0000
   2844 O          23.2586   13.2572   18.2279 O.3     1  UNL1        0.0000
   2845 O          29.8835   13.5903   14.1936 O.2     1  UNL1        0.0000
   2846 O          15.9362    9.1266   25.0543 O.3     1  UNL1        0.0000
   2847 O          29.1845   10.8099   14.2236 O.3     1  UNL1        0.0000
   2848 O          18.1414   10.9867   25.1254 O.3     1  UNL1        0.0000
   2849 O          24.9535   13.8732   16.1299 O.3     1  UNL1        0.0000
   2850 O          20.5373    6.7015   23.1272 O.3     1  UNL1        0.0000
   2851 O          27.4323   12.7377   13.1819 O.3     1  UNL1        0.0000
   2852 O          18.4460    8.4399   26.1551 O.3     1  UNL1        0.0000
   2853 TI         13.5034    2.0139   37.4857 Ti      1  UNL1        0.0000
   2854 TI         24.1745    5.2817   28.0650 Ti      1  UNL1        0.0000
   2855 TI         17.7244   -1.7751   35.6375 Ti      1  UNL1        0.0000
   2856 TI         18.8834    7.4410   29.8690 Ti      1  UNL1        0.0000
   2857 TI         17.8164    9.0858   27.9725 Ti      1  UNL1        0.0000
   2858 TI         19.6312   -1.9659   37.5800 Ti      1  UNL1        0.0000
   2859 TI         14.5019    0.3144   35.5866 Ti      1  UNL1        0.0000
   2860 TI         22.1877    5.5126   29.9238 Ti      1  UNL1        0.0000
   2861 H          20.1187    1.5511   34.8039 H       1  UNL1        0.0000
   2862 H           9.3470   10.0412   32.6988 H       1  UNL1        0.0000
   2863 H          20.8033   10.9091   30.8709 H      38  UNL38       0.0000
   2864 H          13.8681    5.9264   37.2689 H      25  UNK25       0.0000
   2865 H          25.1205    1.4058   28.3757 H       1  UNL1        0.0000
   2866 H           9.5702    1.1204   37.1242 H       1  UNL1        0.0000
   2867 H          27.4859    7.4023   28.2496 H      39  UNK39       0.0000
   2868 H          20.7445   -5.9635   37.1831 H      21  UNK21       0.0000
   2869 H          13.7827    8.3546   28.3163 H       1  UNL1        0.0000
   2870 H          21.0287    3.1026   33.0474 H       1  UNL1        0.0000
   2871 H          16.3265    3.5688   34.6266 H       1  UNL1        0.0000
   2872 H          28.8127   -1.9298   32.5990 H      30  UNL30       0.0000
   2873 H          14.0445    0.2303   39.2047 H       1  UNL1        0.0000
   2874 H          22.2991    4.9759   26.3751 H       1  UNL1        0.0000
   2875 H          20.1332   -2.6082   32.0653 H       1  UNL1        0.0000
   2876 H          17.1174    9.2126   33.5000 H       1  UNL1        0.0000
   2877 H          10.3118    3.5596   35.2580 H       1  UNL1        0.0000
   2878 H          27.0130    3.2918   30.3527 H       1  UNL1        0.0000
   2879 H          12.6432    2.1972   31.9094 H       1  UNL1        0.0000
   2880 H          14.6678   10.8018   30.3455 H       1  UNL1        0.0000
   2881 H          18.1052   12.1994   28.8301 H       1  UNL1        0.0000
   2882 H          25.0398   -0.6188   29.5763 H       1  UNL1        0.0000
   2883 H          20.9784    7.1958   28.5183 H       1  UNL1        0.0000
   2884 H          16.5873    0.0330   36.9397 H       1  UNL1        0.0000
   2885 H          23.7870    0.1172   35.9489 H       1  UNL1        0.0000
   2886 H          22.3273   -0.4041   36.7038 H       1  UNL1        0.0000
   2887 H          24.2002    4.5694   34.8530 H       1  UNL1        0.0000
   2888 H          23.6094    4.9099   33.2382 H       1  UNL1        0.0000
   2889 H          23.4699   -4.8514   35.7547 H       1  UNL1        0.0000
   2890 H          22.1558   -3.7966   36.2207 H       1  UNL1        0.0000
   2891 H          17.7832    1.8100   35.5766 H       1  UNL1        0.0000
   2892 H          17.2356    5.1254   32.8691 H       1  UNL1        0.0000
   2893 H          22.1127    8.9678   30.0659 H      38  UNL38       0.0000
   2894 H          24.3708    8.5084   30.9651 H      38  UNL38       0.0000
   2895 C          24.7940    4.5576   30.9242 C.2     1  UNL1        0.0000
   2896 C          12.5185    2.2451   34.6444 C.3     1  UNL1        0.0000
   2897 C          20.3333   -2.6942   34.6971 C.3     1  UNL1        0.0000
   2898 C          16.8853    9.3418   30.8418 C.3     1  UNL1        0.0000
   2899 C          25.7161    3.9836   31.9136 C.2     1  UNL1        0.0000
   2900 C          11.5599    2.8385   33.6734 C.ar    1  UNL1        0.0000
   2901 C          21.2890   -3.2743   33.7439 C.ar    1  UNL1        0.0000
   2902 C          15.9791    9.9560   31.8474 C.ar    1  UNL1        0.0000
   2903 C          25.4727    4.0482   33.3215 C.3     1  UNL1        0.0000
   2904 C          11.7726    2.7278   32.2841 C.ar    1  UNL1        0.0000
   2905 C          22.4468   -3.9954   34.1896 C.ar    1  UNL1        0.0000
   2906 C          14.8557   10.6909   31.4097 C.ar    1  UNL1        0.0000
   2907 C          16.2470    9.7926   33.2006 C.ar    1  UNL1        0.0000
   2908 C          21.0291   -3.1492   32.3615 C.ar    1  UNL1        0.0000
   2909 C          26.8707    3.3251   31.4306 C.3     1  UNL1        0.0000
   2910 C          10.4391    3.4916   34.1792 C.ar    1  UNL1        0.0000
   2911 C          19.1854    4.2058   32.8601 C.ar    1  UNL1        0.0000
   2912 C          18.1738    2.4785   34.8114 C.ar    1  UNL1        0.0000
   2913 C          22.5331    9.6247   30.8257 C.2    38  UNL38       0.0000
   2914 C          14.6417   -3.0463   32.7488 C.ar    1  UNL1        0.0000
   2915 C          25.0868    1.4867   26.2319 C.ar    1  UNL1        0.0000
   2916 C          18.2108   13.0459   26.3092 C.ar    1  UNL1        0.0000
   2917 C          23.0559    0.0938   39.2104 C.2     1  UNL1        0.0000
   2918 C           9.6520    1.1702   39.2673 C.2     1  UNL1        0.0000
   2919 C          19.7222    5.1229   31.8261 C.3     1  UNL1        0.0000
   2920 C          15.2268   -2.1350   33.7608 C.3     1  UNL1        0.0000
   2921 C          20.5877   -4.3032   39.3217 C.3     1  UNL1        0.0000
   2922 C          18.1678   11.6100   26.2702 C.3     1  UNL1        0.0000
   2923 C          21.7806   -0.5679   39.2636 C.2     1  UNL1        0.0000
   2924 C          11.0392    1.6331   39.2845 C.2     1  UNL1        0.0000
   2925 C          17.8546    4.3410   33.2993 C.ar    1  UNL1        0.0000
   2926 C          19.4970    2.3352   34.3751 C.ar    1  UNL1        0.0000
   2927 C          21.7958   10.7260   31.2792 C.2    38  UNL38       0.0000
   2928 C           8.3530   10.2180   32.2939 C.ar    1  UNL1        0.0000
   2929 C          25.1563    0.8179   27.4604 C.ar    1  UNL1        0.0000
   2930 C          13.8637    6.5137   38.1835 C.2    25  UNK25       0.0000
   2931 C          12.0112    7.6289   27.3308 C.ar    1  UNL1        0.0000
   2932 C           9.0204    0.9204   38.0424 C.2     1  UNL1        0.0000
   2933 C          23.8130    9.3680   31.3332 C.2    38  UNL38       0.0000
   2934 C          29.3629   -2.7962   32.2379 C.2    30  UNL30       0.0000
   2935 C          20.0044    3.1964   33.4017 C.ar    1  UNL1        0.0000
   2936 C          17.3523    3.4771   34.2734 C.ar    1  UNL1        0.0000
   2937 C          23.7335    0.3880   37.9739 C.3     1  UNL1        0.0000
   2938 C          13.2826    8.1534   27.3730 C.ar    1  UNL1        0.0000
   2939 C          20.8098   -6.4901   38.1312 C.2    21  UNK21       0.0000
   2940 C          25.2272   -0.5812   27.5394 C.ar    1  UNL1        0.0000
   2941 N          25.3100   -1.1793   28.7764 N.pl3   1  UNL1        0.0000
   2942 N          23.1542    0.1866   36.7380 N.3     1  UNL1        0.0000
   2943 N          24.3730    4.6557   33.8596 N.3     1  UNL1        0.0000
   2944 N          22.7904   -4.1436   35.5049 N.pl3   1  UNL1        0.0000
   2945 O          23.6063    4.9210   31.2971 O.2     1  UNL1        0.0000
   2946 O          13.3178    1.3221   34.2406 O.3     1  UNL1        0.0000
   2947 O          20.7170   -2.5580   35.9163 O.3     1  UNL1        0.0000
   2948 O          16.7978    9.7703   29.6432 O.3     1  UNL1        0.0000
   2949 O          17.6908    8.4115   31.2227 O.3     1  UNL1        0.0000
   2950 O          19.1485   -2.3663   34.2986 O.3     1  UNL1        0.0000
   2951 O          25.1960    4.6541   29.7103 O.2     1  UNL1        0.0000
   2952 O          12.4680    2.6782   35.8450 O.3     1  UNL1        0.0000
   2953 O          22.5284    4.3075   28.7258 O.3     1  UNL1        0.0000
   2954 O          15.0038    1.8921   36.3302 O.3     1  UNL1        0.0000
   2955 O          23.3895    6.6256   29.1737 O.3     1  UNL1        0.0000
   2956 O          13.3155    0.1069   36.8302 O.3     1  UNL1        0.0000
   2957 O          18.0314   -2.9388   36.8949 O.3     1  UNL1        0.0000
   2958 O          19.3412    9.0203   29.1298 O.3     1  UNL1        0.0000
   2959 O          18.9034   -0.6449   36.4286 O.3     1  UNL1        0.0000
   2960 O          17.6943    7.2054   28.6194 O.3     1  UNL1        0.0000
   2961 O          20.9469    4.9861   31.4649 O.3     1  UNL1        0.0000
   2962 O          14.5356   -1.1241   34.1441 O.3     1  UNL1        0.0000
   2963 O          20.4382   -3.7115   38.1826 O.3     1  UNL1        0.0000
   2964 O          18.1153   10.9048   27.3649 O.3     1  UNL1        0.0000
   2965 O          21.1427   -0.8971   38.1769 O.2     1  UNL1        0.0000
   2966 O          15.9443    8.9924   27.3147 O.3     1  UNL1        0.0000
   2967 O          16.4007   -2.3895   34.2117 O.3     1  UNL1        0.0000
   2968 O          18.9460    6.0180   31.3382 O.3     1  UNL1        0.0000
   2969 O          25.5710    6.3511   27.3039 O.2     1  UNL1        0.0000
   2970 O          11.6236    1.8874   38.1645 O.2     1  UNL1        0.0000
   2971 O          24.8719    3.5707   27.3338 O.3     1  UNL1        0.0000
   2972 O          13.8288    3.7475   38.2357 O.3     1  UNL1        0.0000
   2973 O          20.6409    6.6340   29.2402 O.3     1  UNL1        0.0000
   2974 O          16.2248   -0.5377   36.2375 O.3     1  UNL1        0.0000
   2975 O          23.1197    5.4985   26.2921 O.3     1  UNL1        0.0000
   2976 O          14.1335    1.2007   39.2653 O.3     1  UNL1        0.0000
   2977 TI         15.1066   30.8691   11.2652 Ti      1  UNL1        0.0000
   2978 TI         25.7776   34.1369    1.8444 Ti     40  UNL40       0.0000
   2979 TI         19.3275   27.0801    9.4170 Ti      1  UNL1        0.0000
   2980 TI         20.4866   36.2962    3.6484 Ti     40  UNL40       0.0000
   2981 TI         19.4195   37.9411    1.7520 Ti     40  UNL40       0.0000
   2982 TI         21.2343   26.8893   11.3595 Ti      1  UNL1        0.0000
   2983 TI         16.1050   29.1696    9.3660 Ti      1  UNL1        0.0000
   2984 TI         23.7908   34.3678    3.7033 Ti     40  UNL40       0.0000
   2985 H          21.7218   30.4063    8.5834 H      40  UNL40       0.0000
   2986 H          10.9501   38.8964    6.4782 H      16  UNL16       0.0000
   2987 H          22.4064   39.7643    4.6503 H      26  UNL26       0.0000
   2988 H          15.4712   34.7816   11.0484 H       1  UNL1        0.0000
   2989 H          26.7237   30.2610    2.1552 H       1  UNL1        0.0000
   2990 H          11.1733   29.9756   10.9036 H       1  UNL1        0.0000
   2991 H          29.0890   36.2575    2.0291 H      41  UNK41       0.0000
   2992 H          22.3476   22.8917   10.9625 H       1  UNL1        0.0000
   2993 H          15.3859   37.2098    2.0957 H      27  UNL27       0.0000
   2994 H          22.6318   31.9578    6.8269 H      40  UNL40       0.0000
   2995 H          17.9296   32.4240    8.4060 H      40  UNL40       0.0000
   2996 H          30.4158   26.9254    6.3785 H      34  UNL34       0.0000
   2997 H          15.6476   29.0855   12.9842 H       1  UNL1        0.0000
   2998 H          23.9022   33.8311    0.1546 H      40  UNL40       0.0000
   2999 H          21.7363   26.2470    5.8447 H       1  UNL1        0.0000
   3000 H          18.7205   38.0678    7.2795 H      40  UNL40       0.0000
   3001 H          11.9150   32.4148    9.0374 H       1  UNL1        0.0000
   3002 H          28.6161   32.1470    4.1322 H      40  UNL40       0.0000
   3003 H          14.2464   31.0524    5.6889 H       1  UNL1        0.0000
   3004 H          16.2709   39.6570    4.1249 H      40  UNL40       0.0000
   3005 H          19.7083   41.0546    2.6096 H      42  UNK42       0.0000
   3006 H          26.6429   28.2364    3.3557 H       1  UNL1        0.0000
   3007 H          22.5815   36.0510    2.2978 H      40  UNL40       0.0000
   3008 H          18.1904   28.8882   10.7192 H       1  UNL1        0.0000
   3009 H          25.3901   28.9724    9.7284 H       1  UNL1        0.0000
   3010 H          23.9304   28.4512   10.4833 H       1  UNL1        0.0000
   3011 H          25.8034   33.4246    8.6325 H      40  UNL40       0.0000
   3012 H          25.2125   33.7651    7.0176 H      40  UNL40       0.0000
   3013 H          25.0730   24.0038    9.5342 H       1  UNL1        0.0000
   3014 H          23.7589   25.0586   10.0002 H       1  UNL1        0.0000
   3015 H          19.3864   30.6652    9.3560 H      40  UNL40       0.0000
   3016 H          18.8387   33.9807    6.6485 H      40  UNL40       0.0000
   3017 H          23.7158   37.8230    3.8453 H      26  UNL26       0.0000
   3018 H          25.9739   37.3636    4.7446 H      26  UNL26       0.0000
   3019 C          26.3971   33.4128    4.7037 C.2    40  UNL40       0.0000
   3020 C          14.1216   31.1003    8.4239 C.3     1  UNL1        0.0000
   3021 C          21.9364   26.1610    8.4766 C.3     1  UNL1        0.0000
   3022 C          18.4884   38.1970    4.6213 C.3    40  UNL40       0.0000
   3023 C          27.3192   32.8389    5.6930 C.2    40  UNL40       0.0000
   3024 C          13.1630   31.6937    7.4529 C.ar    1  UNL1        0.0000
   3025 C          22.8921   25.5809    7.5233 C.ar    1  UNL1        0.0000
   3026 C          17.5822   38.8112    5.6269 C.2    40  UNL40       0.0000
   3027 C          27.0758   32.9034    7.1009 C.3    40  UNL40       0.0000
   3028 C          13.3757   31.5830    6.0635 C.ar    1  UNL1        0.0000
   3029 C          24.0499   24.8598    7.9691 C.ar    1  UNL1        0.0000
   3030 C          16.4588   39.5461    5.1891 C.3    40  UNL40       0.0000
   3031 C          17.8501   38.6478    6.9801 C.2    40  UNL40       0.0000
   3032 C          22.6322   25.7060    6.1410 C.ar    1  UNL1        0.0000
   3033 C          28.4738   32.1803    5.2100 C.3    40  UNL40       0.0000
   3034 C          12.0422   32.3468    7.9586 C.ar    1  UNL1        0.0000
   3035 C          20.7885   33.0610    6.6396 C.ar   40  UNL40       0.0000
   3036 C          19.7769   31.3338    8.5908 C.ar   40  UNL40       0.0000
   3037 C          24.1362   38.4799    4.6051 C.2    26  UNL26       0.0000
   3038 C          16.2448   25.8089    6.5282 C.ar    1  UNL1        0.0000
   3039 C          26.6899   30.3419    0.0113 C.3     1  UNL1        0.0000
   3040 C          19.8139   41.9011    0.0887 C.3    40  UNL40       0.0000
   3041 C          24.6590   28.9490   12.9898 C.2     1  UNL1        0.0000
   3042 C          11.2552   30.0254   13.0467 C.ar    1  UNL1        0.0000
   3043 C          21.3254   33.9781    5.6056 C.3    40  UNL40       0.0000
   3044 C          16.8299   26.7202    7.5402 C.3     1  UNL1        0.0000
   3045 C          22.1909   24.5520   13.1012 C.3     1  UNL1        0.0000
   3046 C          19.7709   40.4652    0.0497 C.3    40  UNL40       0.0000
   3047 C          23.3837   28.2873   13.0430 C.2     1  UNL1        0.0000
   3048 C          12.6423   30.4883   13.0640 C.3     1  UNL1        0.0000
   3049 C          19.4577   33.1962    7.0787 C.ar   40  UNL40       0.0000
   3050 C          21.1001   31.1904    8.1546 C.ar   40  UNL40       0.0000
   3051 C          23.3989   39.5812    5.0587 C.3    26  UNL26       0.0000
   3052 C           9.9561   39.0732    6.0734 C.2    16  UNL16       0.0000
   3053 C          26.7594   29.6731    1.2398 C.2     1  UNL1        0.0000
   3054 C          15.4668   35.3689   11.9630 C.3     1  UNL1        0.0000
   3055 C          13.6144   36.4842    1.1102 C.2    27  UNL27       0.0000
   3056 C          10.6235   29.7756   11.8218 C.ar    1  UNL1        0.0000
   3057 C          25.4162   38.2233    5.1127 C.2    26  UNL26       0.0000
   3058 C          30.9660   26.0590    6.0174 C.2    34  UNL34       0.0000
   3059 C          21.6075   32.0517    7.1812 C.ar   40  UNL40       0.0000
   3060 C          18.9555   32.3323    8.0529 C.ar   40  UNL40       0.0000
   3061 C          25.3366   29.2432   11.7534 C.3     1  UNL1        0.0000
   3062 C          14.8857   37.0086    1.1525 C.2    27  UNL27       0.0000
   3063 C          22.4129   22.3652   11.9106 C.ar    1  UNL1        0.0000
   3064 C          26.8303   28.2740    1.3189 C.2     1  UNL1        0.0000
   3065 N          26.9132   27.6760    2.5559 N.pl3   1  UNL1        0.0000
   3066 N          24.7574   29.0418   10.5174 N.3     1  UNL1        0.0000
   3067 N          25.9761   33.5110    7.6391 N.3    40  UNL40       0.0000
   3068 N          24.3936   24.7116    9.2844 N.pl3   1  UNL1        0.0000
   3069 O          25.2095   33.7763    5.0765 O.2    40  UNL40       0.0000
   3070 O          14.9210   30.1773    8.0200 O.3     1  UNL1        0.0000
   3071 O          22.3201   26.2972    9.6957 O.3     1  UNL1        0.0000
   3072 O          18.4009   38.6256    3.4226 O.3    40  UNL40       0.0000
   3073 O          19.2939   37.2667    5.0021 O.3    40  UNL40       0.0000
   3074 O          20.7516   26.4890    8.0781 O.3     1  UNL1        0.0000
   3075 O          26.7991   33.5093    3.4898 O.2    40  UNL40       0.0000
   3076 O          14.0711   31.5334    9.6244 O.3     1  UNL1        0.0000
   3077 O          24.1316   33.1627    2.5052 O.3    40  UNL40       0.0000
   3078 O          16.6070   30.7474   10.1096 O.3     1  UNL1        0.0000
   3079 O          24.9927   35.4808    2.9532 O.3    40  UNL40       0.0000
   3080 O          14.9187   28.9621   10.6096 O.3     1  UNL1        0.0000
   3081 O          19.6345   25.9164   10.6743 O.3     1  UNL1        0.0000
   3082 O          20.9443   37.8755    2.9093 O.3    40  UNL40       0.0000
   3083 O          20.5066   28.2103   10.2080 O.3     1  UNL1        0.0000
   3084 O          19.2974   36.0607    2.3989 O.3    40  UNL40       0.0000
   3085 O          22.5500   33.8413    5.2443 O.3    40  UNL40       0.0000
   3086 O          16.1387   27.7311    7.9235 O.3     1  UNL1        0.0000
   3087 O          22.0413   25.1437   11.9620 O.3     1  UNL1        0.0000
   3088 O          19.7184   39.7600    1.1444 O.3    40  UNL40       0.0000
   3089 O          22.7458   27.9581   11.9563 O.2     1  UNL1        0.0000
   3090 O          17.5474   37.8476    1.0941 O.3    40  UNL40       0.0000
   3091 O          18.0038   26.4657    7.9912 O.3     1  UNL1        0.0000
   3092 O          20.5492   34.8732    5.1176 O.3    40  UNL40       0.0000
   3093 O          27.1741   35.2063    1.0833 O.3    40  UNL40       0.0000
   3094 O          13.2268   30.7426   11.9440 O.3     1  UNL1        0.0000
   3095 O          26.4751   32.4259    1.1133 O.3    40  UNL40       0.0000
   3096 O          15.4320   32.6028   12.0151 O.2     1  UNL1        0.0000
   3097 O          22.2441   35.4892    3.0197 O.3    40  UNL40       0.0000
   3098 O          17.8279   28.3175   10.0169 O.3     1  UNL1        0.0000
   3099 O          24.7229   34.3538    0.0716 O.3    40  UNL40       0.0000
   3100 O          15.7366   30.0559   13.0448 O.3     1  UNL1        0.0000
   3101 TI         10.7940   23.6299   24.3754 Ti      1  UNL1        0.0000
   3102 TI         21.4651   26.8977   14.9547 Ti      1  UNL1        0.0000
   3103 TI         15.0150   19.8409   22.5273 Ti      1  UNL1        0.0000
   3104 TI         16.1740   29.0570   16.7587 Ti      1  UNL1        0.0000
   3105 TI         15.1070   30.7018   14.8622 Ti      1  UNL1        0.0000
   3106 TI         16.9218   19.6501   24.4698 Ti      1  UNL1        0.0000
   3107 TI         11.7925   21.9304   22.4763 Ti      1  UNL1        0.0000
   3108 TI         19.4783   27.1286   16.8136 Ti      1  UNL1        0.0000
   3109 H          17.4093   23.1671   21.6937 H       1  UNL1        0.0000
   3110 H           6.6375   31.6572   19.5885 H      18  UNL18       0.0000
   3111 H          18.0939   32.5251   17.7606 H      28  UNK28       0.0000
   3112 H          11.1587   27.5424   24.1586 H       1  UNL1        0.0000
   3113 H          22.4111   23.0218   15.2654 H       1  UNL1        0.0000
   3114 H           6.8608   22.7364   24.0139 H       1  UNL1        0.0000
   3115 H          24.7765   29.0183   15.1394 H      43  UNK43       0.0000
   3116 H          18.0351   15.6525   24.0728 H       1  UNL1        0.0000
   3117 H          11.0733   29.9706   15.2060 H       1  UNL1        0.0000
   3118 H          18.3193   24.7186   19.9372 H       1  UNL1        0.0000
   3119 H          13.6171   25.1848   21.5163 H       1  UNL1        0.0000
   3120 H          26.1033   19.6862   19.4887 H      36  UNL36       0.0000
   3121 H          11.3351   21.8463   26.0944 H       1  UNL1        0.0000
   3122 H          19.5897   26.5919   13.2649 H       1  UNL1        0.0000
   3123 H          17.4238   19.0078   18.9550 H       1  UNL1        0.0000
   3124 H          14.4080   30.8286   20.3897 H       1  UNL1        0.0000
   3125 H           7.6024   25.1756   22.1477 H       1  UNL1        0.0000
   3126 H          24.3036   24.9078   17.2425 H       1  UNL1        0.0000
   3127 H           9.9338   23.8132   18.7991 H       1  UNL1        0.0000
   3128 H          11.9584   32.4178   17.2352 H       1  UNL1        0.0000
   3129 H          15.3958   33.8154   15.7198 H      44  UNK44       0.0000
   3130 H          22.3304   20.9972   16.4660 H       1  UNL1        0.0000
   3131 H          18.2690   28.8118   15.4080 H       1  UNL1        0.0000
   3132 H          13.8779   21.6490   23.8294 H       1  UNL1        0.0000
   3133 H          21.0776   21.7332   22.8387 H       1  UNL1        0.0000
   3134 H          19.6179   21.2120   23.5936 H       1  UNL1        0.0000
   3135 H          21.4908   26.1854   21.7428 H       1  UNL1        0.0000
   3136 H          20.9000   26.5259   20.1279 H       1  UNL1        0.0000
   3137 H          20.7605   16.7646   22.6444 H       1  UNL1        0.0000
   3138 H          19.4464   17.8194   23.1105 H       1  UNL1        0.0000
   3139 H          15.0738   23.4260   22.4663 H       1  UNL1        0.0000
   3140 H          14.5261   26.7415   19.7588 H       1  UNL1        0.0000
   3141 H          19.4033   30.5838   16.9556 H      28  UNK28       0.0000
   3142 H          21.6614   30.1244   17.8549 H      28  UNK28       0.0000
   3143 C          22.0846   26.1736   17.8139 C.2     1  UNL1        0.0000
   3144 C           9.8091   23.8611   21.5341 C.3     1  UNL1        0.0000
   3145 C          17.6239   18.9218   21.5868 C.3     1  UNL1        0.0000
   3146 C          14.1759   30.9578   17.7315 C.3     1  UNL1        0.0000
   3147 C          23.0067   25.5997   18.8033 C.2     1  UNL1        0.0000
   3148 C           8.8505   24.4545   20.5632 C.ar    1  UNL1        0.0000
   3149 C          18.5796   18.3417   20.6336 C.ar    1  UNL1        0.0000
   3150 C          13.2697   31.5720   18.7372 C.2     1  UNL1        0.0000
   3151 C          22.7633   25.6642   20.2112 C.3     1  UNL1        0.0000
   3152 C           9.0632   24.3438   19.1738 C.ar    1  UNL1        0.0000
   3153 C          19.7374   17.6206   21.0793 C.ar    1  UNL1        0.0000
   3154 C          12.1463   32.3069   18.2994 C.3     1  UNL1        0.0000
   3155 C          13.5376   31.4086   20.0904 C.2     1  UNL1        0.0000
   3156 C          18.3197   18.4668   19.2512 C.ar    1  UNL1        0.0000
   3157 C          24.1613   24.9411   18.3203 C.3     1  UNL1        0.0000
   3158 C           7.7297   25.1076   21.0689 C.ar    1  UNL1        0.0000
   3159 C          16.4760   25.8218   19.7498 C.ar    1  UNL1        0.0000
   3160 C          15.4644   24.0946   21.7011 C.ar    1  UNL1        0.0000
   3161 C          19.8237   31.2407   17.7154 C.2    28  UNK28       0.0000
   3162 C          11.9323   18.5697   19.6385 C.ar    1  UNL1        0.0000
   3163 C          22.3774   23.1027   13.1216 C.ar    1  UNL1        0.0000
   3164 C          15.5014   34.6619   13.1989 C.2     1  UNL1        0.0000
   3165 C          20.3465   21.7098   26.1001 C.2     1  UNL1        0.0000
   3166 C           6.9426   22.7862   26.1570 C.ar    1  UNL1        0.0000
   3167 C          17.0128   26.7389   18.7159 C.3     1  UNL1        0.0000
   3168 C          12.5174   19.4810   20.6505 C.3     1  UNL1        0.0000
   3169 C          17.8783   17.3128   26.2114 C.3     1  UNL1        0.0000
   3170 C          15.4584   33.2260   13.1600 C.2     1  UNL1        0.0000
   3171 C          19.0712   21.0481   26.1533 C.2     1  UNL1        0.0000
   3172 C           8.3298   23.2491   26.1743 C.3     1  UNL1        0.0000
   3173 C          15.1452   25.9570   20.1890 C.ar    1  UNL1        0.0000
   3174 C          16.7876   23.9512   21.2649 C.ar    1  UNL1        0.0000
   3175 C          19.0864   32.3420   18.1689 C.3    28  UNK28       0.0000
   3176 C           5.6436   31.8340   19.1837 C.2    18  UNL18       0.0000
   3177 C          22.4469   22.4339   14.3501 C.ar    1  UNL1        0.0000
   3178 C          11.1543   28.1297   25.0733 C.3     1  UNL1        0.0000
   3179 C           9.3018   29.2450   14.2205 C.ar    1  UNL1        0.0000
   3180 C           6.3110   22.5364   24.9321 C.ar    1  UNL1        0.0000
   3181 C          21.1036   30.9841   18.2230 C.2    28  UNK28       0.0000
   3182 C          26.6535   18.8198   19.1277 C.2    36  UNL36       0.0000
   3183 C          17.2950   24.8125   20.2915 C.ar    1  UNL1        0.0000
   3184 C          14.6429   25.0931   21.1632 C.ar    1  UNL1        0.0000
   3185 C          21.0241   22.0040   24.8637 C.3     1  UNL1        0.0000
   3186 C          10.5732   29.7694   14.2627 C.ar    1  UNL1        0.0000
   3187 C          18.1004   15.1260   25.0209 C.ar    1  UNL1        0.0000
   3188 C          22.5178   21.0348   14.4292 C.ar    1  UNL1        0.0000
   3189 N          22.6006   20.4368   15.6662 N.pl3   1  UNL1        0.0000
   3190 N          20.4448   21.8026   23.6277 N.3     1  UNL1        0.0000
   3191 N          21.6636   26.2718   20.7494 N.3     1  UNL1        0.0000
   3192 N          20.0810   17.4724   22.3946 N.pl3   1  UNL1        0.0000
   3193 O          20.8969   26.5371   18.1868 O.2     1  UNL1        0.0000
   3194 O          10.6084   22.9381   21.1303 O.3     1  UNL1        0.0000
   3195 O          18.0076   19.0580   22.8060 O.3     1  UNL1        0.0000
   3196 O          14.0884   31.3864   16.5329 O.3     1  UNL1        0.0000
   3197 O          14.9814   30.0275   18.1124 O.3     1  UNL1        0.0000
   3198 O          16.4391   19.2497   21.1883 O.3     1  UNL1        0.0000
   3199 O          22.4866   26.2701   16.6000 O.2     1  UNL1        0.0000
   3200 O           9.7586   24.2942   22.7347 O.3     1  UNL1        0.0000
   3201 O          19.8190   25.9235   15.6155 O.3     1  UNL1        0.0000
   3202 O          12.2944   23.5082   23.2199 O.3     1  UNL1        0.0000
   3203 O          20.6801   28.2416   16.0635 O.3     1  UNL1        0.0000
   3204 O          10.6061   21.7229   23.7199 O.3     1  UNL1        0.0000
   3205 O          15.3220   18.6772   23.7846 O.3     1  UNL1        0.0000
   3206 O          16.6318   30.6363   16.0195 O.3     1  UNL1        0.0000
   3207 O          16.1940   20.9711   23.3183 O.3     1  UNL1        0.0000
   3208 O          14.9849   28.8215   15.5092 O.3     1  UNL1        0.0000
   3209 O          18.2375   26.6021   18.3546 O.3     1  UNL1        0.0000
   3210 O          11.8262   20.4919   21.0338 O.3     1  UNL1        0.0000
   3211 O          17.7288   17.9045   25.0723 O.3     1  UNL1        0.0000
   3212 O          15.4059   32.5208   14.2546 O.2     1  UNL1        0.0000
   3213 O          18.4333   20.7189   25.0666 O.2     1  UNL1        0.0000
   3214 O          13.2349   30.6084   14.2044 O.3     1  UNL1        0.0000
   3215 O          13.6913   19.2265   21.1014 O.3     1  UNL1        0.0000
   3216 O          16.2366   27.6340   18.2279 O.3     1  UNL1        0.0000
   3217 O          22.8616   27.9671   14.1936 O.2     1  UNL1        0.0000
   3218 O           8.9142   23.5034   25.0543 O.3     1  UNL1        0.0000
   3219 O          22.1625   25.1867   14.2236 O.3     1  UNL1        0.0000
   3220 O          11.1194   25.3636   25.1254 O.2     1  UNL1        0.0000
   3221 O          17.9315   28.2500   16.1299 O.3     1  UNL1        0.0000
   3222 O          13.5154   21.0783   23.1272 O.3     1  UNL1        0.0000
   3223 O          20.4103   27.1146   13.1819 O.3     1  UNL1        0.0000
   3224 O          11.4241   22.8167   26.1551 O.3     1  UNL1        0.0000
   3225 TI          6.4815   16.3907   37.4857 Ti      1  UNL1        0.0000
   3226 TI         17.1525   19.6585   28.0650 Ti      1  UNL1        0.0000
   3227 TI         10.7025   12.6017   35.6375 Ti      1  UNL1        0.0000
   3228 TI         11.8615   21.8178   29.8690 Ti      1  UNL1        0.0000
   3229 TI         10.7945   23.4626   27.9725 Ti      1  UNL1        0.0000
   3230 TI         12.6093   12.4109   37.5800 Ti      1  UNL1        0.0000
   3231 TI          7.4799   14.6912   35.5866 Ti      1  UNL1        0.0000
   3232 TI         15.1658   19.8894   29.9238 Ti      1  UNL1        0.0000
   3233 H          13.0968   15.9279   34.8039 H       1  UNL1        0.0000
   3234 H           2.3250   24.4180   32.6988 H      20  UNL20       0.0000
   3235 H          13.7814   25.2859   30.8709 H      29  UNL29       0.0000
   3236 H           6.8462   20.3032   37.2689 H      30  UNL30       0.0000
   3237 H          18.0986   15.7826   28.3757 H       1  UNL1        0.0000
   3238 H           2.5482   15.4972   37.1242 H       1  UNL1        0.0000
   3239 H          20.4640   21.7791   28.2496 H      45  UNK45       0.0000
   3240 H          13.7225    8.4133   37.1831 H      25  UNK25       0.0000
   3241 H           6.7608   22.7314   28.3163 H       1  UNL1        0.0000
   3242 H          14.0068   17.4794   33.0474 H       1  UNL1        0.0000
   3243 H           9.3046   17.9456   34.6266 H       1  UNL1        0.0000
   3244 H          21.7907   12.4470   32.5990 H      38  UNL38       0.0000
   3245 H           7.0226   14.6071   39.2047 H       1  UNL1        0.0000
   3246 H          15.2771   19.3527   26.3751 H       1  UNL1        0.0000
   3247 H          13.1113   11.7686   32.0653 H       1  UNL1        0.0000
   3248 H          10.0954   23.5894   33.5000 H       1  UNL1        0.0000
   3249 H           3.2899   17.9364   35.2580 H       1  UNL1        0.0000
   3250 H          19.9910   17.6686   30.3527 H       1  UNL1        0.0000
   3251 H           5.6213   16.5740   31.9094 H       1  UNL1        0.0000
   3252 H           7.6459   25.1786   30.3455 H       1  UNL1        0.0000
   3253 H          11.0832   26.5762   28.8301 H      46  UNK46       0.0000
   3254 H          18.0179   13.7580   29.5763 H       1  UNL1        0.0000
   3255 H          13.9565   21.5726   28.5183 H       1  UNL1        0.0000
   3256 H           9.5653   14.4098   36.9397 H       1  UNL1        0.0000
   3257 H          16.7650   14.4940   35.9489 H       1  UNL1        0.0000
   3258 H          15.3053   13.9728   36.7038 H       1  UNL1        0.0000
   3259 H          17.1783   18.9462   34.8530 H       1  UNL1        0.0000
   3260 H          16.5874   19.2867   33.2382 H       1  UNL1        0.0000
   3261 H          16.4479    9.5254   35.7547 H       1  UNL1        0.0000
   3262 H          15.1338   10.5802   36.2207 H       1  UNL1        0.0000
   3263 H          10.7613   16.1868   35.5766 H       1  UNL1        0.0000
   3264 H          10.2136   19.5023   32.8691 H       1  UNL1        0.0000
   3265 H          15.0908   23.3446   30.0659 H      29  UNL29       0.0000
   3266 H          17.3489   22.8852   30.9651 H      29  UNL29       0.0000
   3267 C          17.7720   18.9344   30.9242 C.2     1  UNL1        0.0000
   3268 C           5.4965   16.6219   34.6444 C.3     1  UNL1        0.0000
   3269 C          13.3114   11.6826   34.6971 C.3     1  UNL1        0.0000
   3270 C           9.8634   23.7186   30.8418 C.3     1  UNL1        0.0000
   3271 C          18.6941   18.3605   31.9136 C.2     1  UNL1        0.0000
   3272 C           4.5380   17.2153   33.6734 C.ar    1  UNL1        0.0000
   3273 C          14.2671   11.1025   33.7439 C.ar    1  UNL1        0.0000
   3274 C           8.9572   24.3328   31.8474 C.2     1  UNL1        0.0000
   3275 C          18.4508   18.4250   33.3215 C.3     1  UNL1        0.0000
   3276 C           4.7506   17.1046   32.2841 C.ar    1  UNL1        0.0000
   3277 C          15.4248   10.3814   34.1896 C.ar    1  UNL1        0.0000
   3278 C           7.8337   25.0677   31.4097 C.3     1  UNL1        0.0000
   3279 C           9.2250   24.1694   33.2006 C.2     1  UNL1        0.0000
   3280 C          14.0072   11.2276   32.3615 C.ar    1  UNL1        0.0000
   3281 C          19.8488   17.7019   31.4306 C.3     1  UNL1        0.0000
   3282 C           3.4172   17.8684   34.1792 C.ar    1  UNL1        0.0000
   3283 C          12.1635   18.5826   32.8601 C.ar    1  UNL1        0.0000
   3284 C          11.1519   16.8554   34.8114 C.ar    1  UNL1        0.0000
   3285 C          15.5112   24.0015   30.8257 C.2    29  UNL29       0.0000
   3286 C           7.6198   11.3305   32.7488 C.ar    1  UNL1        0.0000
   3287 C          18.0649   15.8635   26.2319 C.ar    1  UNL1        0.0000
   3288 C          11.1889   27.4227   26.3092 C.2     1  UNL1        0.0000
   3289 C          16.0339   14.4706   39.2104 C.2     1  UNL1        0.0000
   3290 C           2.6301   15.5470   39.2673 C.2     1  UNL1        0.0000
   3291 C          12.7003   19.4997   31.8261 C.3     1  UNL1        0.0000
   3292 C           8.2048   12.2418   33.7608 C.3     1  UNL1        0.0000
   3293 C          13.5658   10.0736   39.3217 C.3     1  UNL1        0.0000
   3294 C          11.1459   25.9868   26.2702 C.2     1  UNL1        0.0000
   3295 C          14.7586   13.8089   39.2636 C.2     1  UNL1        0.0000
   3296 C           4.0172   16.0099   39.2845 C.2     1  UNL1        0.0000
   3297 C          10.8327   18.7178   33.2993 C.ar    1  UNL1        0.0000
   3298 C          12.4750   16.7120   34.3751 C.ar    1  UNL1        0.0000
   3299 C          14.7738   25.1028   31.2792 C.3    29  UNL29       0.0000
   3300 C           1.3310   24.5948   32.2939 C.2    20  UNL20       0.0000
   3301 C          18.1344   15.1947   27.4604 C.ar    1  UNL1        0.0000
   3302 C           6.8417   20.8905   38.1835 C.3    47  UNL47       0.0000
   3303 C           4.9893   22.0058   27.3308 C.ar    1  UNL1        0.0000
   3304 C           1.9985   15.2972   38.0424 C.2     1  UNL1        0.0000
   3305 C          16.7911   23.7449   31.3332 C.2    29  UNL29       0.0000
   3306 C          22.3410   11.5806   32.2379 C.2    38  UNL38       0.0000
   3307 C          12.9824   17.5732   33.4017 C.ar    1  UNL1        0.0000
   3308 C          10.3304   17.8539   34.2734 C.ar    1  UNL1        0.0000
   3309 C          16.7115   14.7648   37.9739 C.3     1  UNL1        0.0000
   3310 C           6.2607   22.5302   27.3730 C.ar    1  UNL1        0.0000
   3311 C          13.7878    7.8867   38.1312 C.2    25  UNK25       0.0000
   3312 C          18.2053   13.7956   27.5394 C.ar    1  UNL1        0.0000
   3313 N          18.2881   13.1976   28.7764 N.pl3   1  UNL1        0.0000
   3314 N          16.1323   14.5634   36.7380 N.3     1  UNL1        0.0000
   3315 N          17.3510   19.0326   33.8596 N.3     1  UNL1        0.0000
   3316 N          15.7685   10.2332   35.5049 N.pl3   1  UNL1        0.0000
   3317 O          16.5844   19.2979   31.2971 O.2     1  UNL1        0.0000
   3318 O           6.2959   15.6989   34.2406 O.3     1  UNL1        0.0000
   3319 O          13.6951   11.8188   35.9163 O.3     1  UNL1        0.0000
   3320 O           9.7759   24.1472   29.6432 O.3     1  UNL1        0.0000
   3321 O          10.6688   22.7883   31.2227 O.3     1  UNL1        0.0000
   3322 O          12.1266   12.0105   34.2986 O.3     1  UNL1        0.0000
   3323 O          18.1741   19.0309   29.7103 O.2     1  UNL1        0.0000
   3324 O           5.4461   17.0550   35.8450 O.3     1  UNL1        0.0000
   3325 O          15.5065   18.6843   28.7258 O.3     1  UNL1        0.0000
   3326 O           7.9819   16.2690   36.3302 O.3     1  UNL1        0.0000
   3327 O          16.3676   21.0024   29.1737 O.3     1  UNL1        0.0000
   3328 O           6.2936   14.4837   36.8302 O.3     1  UNL1        0.0000
   3329 O          11.0095   11.4380   36.8949 O.3     1  UNL1        0.0000
   3330 O          12.3192   23.3971   29.1298 O.3     1  UNL1        0.0000
   3331 O          11.8815   13.7319   36.4286 O.3     1  UNL1        0.0000
   3332 O          10.6723   21.5822   28.6194 O.3     1  UNL1        0.0000
   3333 O          13.9249   19.3629   31.4649 O.3     1  UNL1        0.0000
   3334 O           7.5137   13.2527   34.1441 O.3     1  UNL1        0.0000
   3335 O          13.4162   10.6653   38.1826 O.3     1  UNL1        0.0000
   3336 O          11.0933   25.2816   27.3649 O.2     1  UNL1        0.0000
   3337 O          14.1208   13.4797   38.1769 O.2     1  UNL1        0.0000
   3338 O           8.9224   23.3692   27.3147 O.3     1  UNL1        0.0000
   3339 O           9.3788   11.9873   34.2117 O.3     1  UNL1        0.0000
   3340 O          11.9241   20.3948   31.3382 O.3     1  UNL1        0.0000
   3341 O          18.5490   20.7279   27.3039 O.2     1  UNL1        0.0000
   3342 O           4.6017   16.2642   38.1645 O.2     1  UNL1        0.0000
   3343 O          17.8500   17.9475   27.3338 O.3     1  UNL1        0.0000
   3344 O           6.8069   18.1244   38.2357 O.3     1  UNL1        0.0000
   3345 O          13.6190   21.0108   29.2402 O.3     1  UNL1        0.0000
   3346 O           9.2028   13.8391   36.2375 O.3     1  UNL1        0.0000
   3347 O          16.0978   19.8754   26.2921 O.3     1  UNL1        0.0000
   3348 O           7.1116   15.5775   39.2653 O.3     1  UNL1        0.0000
@<TRIPOS>BOND
     1  1923  1937    1
     2  2295  2309    1
     3  1551  1565    1
     4  1179  1193    1
     5    63    77    1
     6   435   449    1
     7  3039  3053    1
     8  2667  2681    1
     9   807   821    1
    10  1930  1924    1
    11  1930  1972    1
    12    70    64    2
    13    70   112    1
    14  1186  1180    2
    15  1186  1228    1
    16  3046  3040    1
    17  3046  3088    1
    18  2674  2668    2
    19  2674  2716    1
    20   442   436    2
    21   442   484    1
    22  1558  1552    2
    23  1558  1600    1
    24   814   808    1
    25   814   856    1
    26  2302  2296    2
    27  2302  2344    1
    28  2727  2626    1
    29  2727  2606    1
    30   867   766    1
    31   867   746    1
    32  2355  2254    1
    33  2355  2234    1
    34   495   394    1
    35   495   374    1
    36  1611  1510    1
    37  1611  1490    1
    38  3099  2998    1
    39  3099  2978    1
    40   123    22    1
    41   123     2    1
    42  1239  1138    1
    43  1239  1118    1
    44  1983  1882    1
    45  1983  1862    1
    46  1552  1948    1
    47  2296  2692    1
    48  1180  1576    1
    49  2668  3064    1
    50    64   460    1
    51   436   832    1
    52  1977  1862    1
    53   117     2    1
    54   489   374    1
    55   861   746    1
    56  1233  1118    1
    57  1605  1490    1
    58  2349  2234    1
    59  2721  2606    1
    60  3093  2978    1
    61  2346  2237    1
    62   114     5    1
    63  3090  2981    1
    64  1974  1865    1
    65   486   377    1
    66  1230  1121    1
    67  2718  2609    1
    68  1602  1493    1
    69   858   749    1
    70  3055  3062    2
    71  3055  1875    1
    72    79    86    2
    73  1195  1202    2
    74  1195    15    1
    75  1567  1574    2
    76  1567   387    1
    77  2683  2690    2
    78  2683  1503    1
    79   451   458    2
    80   823   830    2
    81  2311  2318    2
    82  2311  1131    1
    83  1939  1946    2
    84  1939   759    1
    85   119     2    1
    86  2723  2606    1
    87  1979  1862    1
    88  3095  2978    1
    89  2351  2234    1
    90  1607  1490    1
    91  1235  1118    1
    92   863   746    1
    93   491   374    1
    94   112     5    1
    95  3088  2981    1
    96  1600  1493    1
    97  1972  1865    1
    98  2344  2237    1
    99   484   377    1
   100   856   749    1
   101  1228  1121    1
   102  2716  2609    1
   103   458   389    1
   104  3062  2993    1
   105  1946  1877    1
   106  1202  1133    1
   107  2318  2249    1
   108   830   761    1
   109    86    17    1
   110  2690  2621    1
   111  1574  1505    1
   112    77    88    2
   113    77    13    1
   114  2681  2692    2
   115  2681  2617    1
   116   821   832    2
   117   821   757    1
   118   449   460    2
   119   449   385    1
   120  1937  1948    2
   121  1937  1873    1
   122  1193  1204    2
   123  1193  1129    1
   124  3053  3064    2
   125  3053  2989    1
   126  2309  2320    2
   127  2309  2245    1
   128  1565  1576    2
   129  1565  1501    1
   130   832   833    1
   131  1948  1949    1
   132   460   461    1
   133  2692  2693    1
   134  1204  1205    1
   135  1576  1577    1
   136  3064  3065    1
   137    88    89    1
   138  2320  2321    1
   139   377   480    1
   140   377   478    1
   141   377   468    1
   142  1121  1224    1
   143  1121  1222    1
   144  1121  1212    1
   145  2981  3084    1
   146  2981  3082    1
   147  2981  3072    1
   148  1493  1596    1
   149  1493  1594    1
   150  1493  1584    1
   151  2237  2340    1
   152  2237  2338    1
   153  2237  2328    1
   154     5   108    1
   155     5   106    1
   156     5    96    1
   157  1865  1968    1
   158  1865  1966    1
   159  1865  1956    1
   160   749   852    1
   161   749   850    1
   162   749   840    1
   163  2609  2712    1
   164  2609  2710    1
   165  2609  2700    1
   166  1862  1961    1
   167  1862  1963    1
   168  1862  1959    1
   169   746   845    1
   170   746   847    1
   171   746   843    1
   172  2234  2333    1
   173  2234  2335    1
   174  2234  2331    1
   175  2978  3077    1
   176  2978  3079    1
   177  2978  3075    1
   178   374   473    1
   179   374   475    1
   180   374   471    1
   181     2   101    1
   182     2   103    1
   183     2    99    1
   184  1490  1589    1
   185  1490  1591    1
   186  1490  1587    1
   187  2606  2705    1
   188  2606  2707    1
   189  2606  2703    1
   190  1118  1217    1
   191  1118  1219    1
   192  1118  1215    1
   193  2635  2725    1
   194  2263  2353    1
   195  1891  1981    1
   196  3007  3097    1
   197   775   865    1
   198   403   493    1
   199  1519  1609    1
   200  1147  1237    1
   201    31   121    1
   202  1968  1864    1
   203   108     4    1
   204  3084  2980    1
   205  1596  1492    1
   206  2712  2608    1
   207   852   748    1
   208   480   376    1
   209  2340  2236    1
   210  1224  1120    1
   211  3077  2984    1
   212  1217  1124    1
   213  1589  1496    1
   214  2705  2612    1
   215  1961  1868    1
   216   101     8    1
   217   845   752    1
   218  2333  2240    1
   219   473   380    1
   220  3065  2633    1
   221  3065  3006    1
   222  1949  1517    1
   223  1949  1890    1
   224  1577  1145    1
   225  1577  1518    1
   226    89    30    1
   227  2321  2262    1
   228   461    29    1
   229   461   402    1
   230  1205  1146    1
   231   833   401    1
   232   833   774    1
   233  2693  2261    1
   234  2693  2634    1
   235   478   376    1
   236  3082  2980    1
   237  1594  1492    1
   238  1966  1864    1
   239  2710  2608    1
   240  1222  1120    1
   241   850   748    1
   242  2338  2236    1
   243   106     4    1
   244  2707  2612    1
   245   847   752    1
   246  2335  2240    1
   247   103     8    1
   248   475   380    1
   249  1219  1124    1
   250  3079  2984    1
   251  1963  1868    1
   252  1591  1496    1
   253   493   380    1
   254  1237  1124    1
   255  2725  2612    1
   256  1981  1868    1
   257   121     8    1
   258  2353  2240    1
   259  3097  2984    1
   260   865   752    1
   261  1609  1496    1
   262  3072  3022    1
   263  1956  1906    1
   264    96    46    1
   265  1584  1534    1
   266  1212  1162    1
   267   468   418    1
   268   840   790    1
   269  2700  2650    1
   270  2328  2278    1
   271   471   415    1
   272  2703  2647    1
   273  2331  2275    1
   274  3075  3019    1
   275   843   787    1
   276    99    43    1
   277  1215  1159    1
   278  1587  1531    1
   279  1959  1903    1
   280  1492  1585    1
   281  1492  1604    1
   282   748   841    1
   283   748   860    1
   284  2236  2329    1
   285  2236  2348    1
   286   376   469    1
   287   376   488    1
   288  2980  3073    1
   289  2980  3092    1
   290  1864  1957    1
   291  1864  1976    1
   292  2608  2701    1
   293  2608  2720    1
   294     4    97    1
   295     4   116    1
   296  1120  1213    1
   297  1120  1232    1
   298  2612  2697    1
   299  2612  2713    1
   300     8    93    1
   301     8   109    1
   302   752   837    1
   303   752   853    1
   304  1868  1953    1
   305  1868  1969    1
   306   380   465    1
   307   380   481    1
   308  2984  3069    1
   309  2984  3085    1
   310  1496  1581    1
   311  1496  1597    1
   312  1124  1209    1
   313  1124  1225    1
   314  2240  2325    1
   315  2240  2341    1
   316   785   805    1
   317  1529  1549    1
   318  1157  1177    1
   319    41    61    1
   320  1901  1921    1
   321   413   433    1
   322  2645  2665    1
   323  3017  3037    1
   324  2273  2293    1
   325    28    54    1
   326  2260  2286    1
   327  1516  1542    1
   328  1888  1914    1
   329  2632  2658    1
   330  3004  3030    1
   331  1144  1170    1
   332   400   426    1
   333   772   798    1
   334  2630  2661    1
   335   770   801    1
   336  1886  1917    1
   337  2258  2289    1
   338  3002  3033    1
   339  1514  1545    1
   340    26    57    1
   341  1142  1173    1
   342   398   429    1
   343  3037  3051    1
   344  3037  3057    2
   345  1549  1563   ar
   346  1549  1569   ar
   347  1177  1191   ar
   348  1177  1197   ar
   349  2293  2307    1
   350  2293  2313    2
   351  2665  2679    1
   352  2665  2685    2
   353   433   447   ar
   354   433   453   ar
   355    61    75   ar
   356    61    81   ar
   357   805   819    2
   358   805   825    1
   359  1921  1935    2
   360  1921  1941    1
   361  2650  2701    1
   362  2650  2654    1
   363  1534  1585    1
   364  1534  1538    1
   365   418   469    1
   366   418   422    1
   367  2278  2329    1
   368  2278  2282    1
   369    46    97    1
   370    46    50    1
   371  1162  1213    1
   372  1162  1166    1
   373  3022  3073    1
   374  3022  3026    1
   375  1906  1957    1
   376  1906  1910    1
   377   790   841    1
   378   790   794    1
   379  2987  3051    1
   380  1871  1935    1
   381  2615  2679    1
   382   755   819    1
   383  2243  2307    1
   384    11    75    1
   385   383   447    1
   386  1499  1563    1
   387  1127  1191    1
   388  3019  3069    1
   389  3019  3023    2
   390  1531  1581    1
   391  1531  1535    1
   392  2275  2325    1
   393  2275  2279    2
   394  2647  2697    1
   395  2647  2651    2
   396   415   465    1
   397   415   419    1
   398    43    93    1
   399    43    47    1
   400  1159  1209    1
   401  1159  1163    1
   402  1903  1953    1
   403  1903  1907    1
   404   787   837    1
   405   787   791    1
   406   786   825    1
   407  1530  1569    1
   408  3018  3057    1
   409  2274  2313    1
   410  2646  2685    1
   411   414   453    1
   412  1902  1941    1
   413    42    81    1
   414  1158  1197    1
   415   447   826   ar
   416  2679  3058    2
   417  2307  2686    2
   418  1191  1570   ar
   419  1563  1942   ar
   420    75   454   ar
   421  1941  3052    2
   422   825  1936    2
   423  1197  2308   ar
   424   453  1564   ar
   425  1569  2680   ar
   426    81  1192   ar
   427  1604  1555    1
   428  1232  1183    1
   429   116    67    1
   430  2720  2671    1
   431  2348  2299    1
   432  3092  3043    1
   433   860   811    1
   434  1976  1927    1
   435   488   439    1
   436   426   422   ar
   437   426   800   ar
   438   798   794    1
   439  2658  2654   ar
   440  2658  3032   ar
   441  1914  1910    1
   442  2286  2282   ar
   443  2286  2660   ar
   444  1170  1166   ar
   445  1170  1544   ar
   446  3030  3026    1
   447    54    50   ar
   448    54   428   ar
   449  1542  1538   ar
   450  1542  1916   ar
   451  3033  3023    1
   452  1917  1907   ar
   453  1917  3028   ar
   454  1173  1163   ar
   455  1173  2284   ar
   456   429   419   ar
   457   429  1540   ar
   458  2661  2651    1
   459    57    47   ar
   460    57  1168   ar
   461   801   791   ar
   462   801  1912   ar
   463  2289  2279    1
   464  1545  1535   ar
   465  1545  2656   ar
   466   853   811    1
   467  2713  2671    1
   468  1225  1183    1
   469  3085  3043    1
   470   481   439    1
   471  1969  1927    1
   472  1597  1555    1
   473  2341  2299    1
   474   109    67    1
   475  2299  2291    1
   476    67    59    1
   477  1927  1919    1
   478   439   431    1
   479  3043  3035    1
   480   811   803    1
   481  1183  1175    1
   482  1555  1547    1
   483  2671  2663    1
   484  2282  2287   ar
   485  1538  1543   ar
   486   422   427   ar
   487  1910  1915    2
   488  3026  3031    2
   489   794   799    2
   490  1166  1171   ar
   491    50    55   ar
   492  2654  2659   ar
   493  1887  1912    1
   494  1515  1540    1
   495  2259  2284    1
   496   771   796    1
   497  1143  1168    1
   498   399   424    1
   499    27    52    1
   500  3003  3028    1
   501  2631  2656    1
   502  1907  1911   ar
   503   791   795   ar
   504  2279  2283    1
   505  1535  1539   ar
   506  3023  3027    1
   507  1163  1167   ar
   508    47    51   ar
   509   419   423   ar
   510  2651  2655    1
   511  1139  1172    1
   512   767   800    1
   513  1511  1544    1
   514    23    56    1
   515  2627  2660    1
   516  1883  1916    1
   517  2255  2288    1
   518  2999  3032    1
   519   395   428    1
   520  1570  1508    1
   521  1570  2666   ar
   522   454   392    1
   523   454  1550   ar
   524  1198  1136    1
   525  1198  2294    1
   526  2314  2252    1
   527  2686  2624    1
   528  3058  2996    1
   529   826   764    1
   530   826  1922   ar
   531    82    20    1
   532    82  1178    1
   533  1942  1880    1
   534  1942  3038   ar
   535    52    48    1
   536  3028  3024   ar
   537   424   420    1
   538  2284  2280   ar
   539  1912  1908   ar
   540  2656  2652   ar
   541  1168  1164   ar
   542  1540  1536   ar
   543   796   792    1
   544  2308  2242    1
   545  2308  2666   ar
   546  1564  1498    1
   547  1564  1922   ar
   548  1192  1126    1
   549  1192  1550   ar
   550    76    10    1
   551    76   434    1
   552  2680  2614    1
   553  2680  3038   ar
   554   820   754    1
   555  1936  1870    1
   556   448   382    1
   557   448   806    1
   558  3052  2986    1
   559  2660  2653   ar
   560  1916  1909   ar
   561   800   793   ar
   562   428   421   ar
   563  1172  1165    1
   564  3032  3025   ar
   565    56    49    1
   566  2288  2281    1
   567  1544  1537   ar
   568  1922  1928    1
   569   806   812    2
   570  1178  1184    2
   571  1550  1556    1
   572  2294  2300    2
   573  2666  2672    1
   574   434   440    2
   575    62    68    1
   576  3038  3044    1
   577   431   445   ar
   578   431   455   ar
   579   803   817   ar
   580   803   827   ar
   581  2663  2677   ar
   582  2663  2687   ar
   583  2291  2305   ar
   584  2291  2315   ar
   585  1175  1189   ar
   586  1175  1199   ar
   587  1919  1933   ar
   588  1919  1943   ar
   589    59    73   ar
   590    59    83   ar
   591  1547  1561   ar
   592  1547  1571   ar
   593  3035  3049   ar
   594  3035  3059   ar
   595   784   817    1
   596  3016  3049    1
   597  1900  1933    1
   598  1156  1189    1
   599    40    73    1
   600  2272  2305    1
   601   412   445    1
   602  2644  2677    1
   603  1528  1561    1
   604    18    83    1
   605  2622  2687    1
   606  2250  2315    1
   607   390   455    1
   608  2994  3059    1
   609  1878  1943    1
   610  1506  1571    1
   611  1134  1199    1
   612   762   827    1
   613    55    24    1
   614    55   425   ar
   615   799   768    1
   616  1171  1140    1
   617  1171  1541   ar
   618  2287  2256    1
   619  2287  2657   ar
   620  1915  1884    1
   621  3031  3000    1
   622  1543  1512    1
   623  1543  1913   ar
   624   427   396    1
   625   427   797   ar
   626  2659  2628    1
   627  2659  3029   ar
   628  1524  1579    1
   629  2640  2695    1
   630   408   463    1
   631  1896  1951    1
   632  2268  2323    1
   633   780   835    1
   634  3012  3067    1
   635    36    91    1
   636  1152  1207    1
   637  2677  2688   ar
   638  3049  3060   ar
   639  1933  1944   ar
   640  1189  1200   ar
   641  2305  2316   ar
   642   445   456   ar
   643   817   828   ar
   644    73    84   ar
   645  1561  1572   ar
   646  2655  2695    1
   647  1911  1951    1
   648  1911  3034   ar
   649  1167  1207    1
   650  1167  2290   ar
   651  1539  1579    1
   652  1539  2662   ar
   653   795   835    1
   654   795  1918   ar
   655  2283  2323    1
   656    51    91    1
   657    51  1174   ar
   658   423   463    1
   659   423  1546   ar
   660  3027  3067    1
   661  1943  1934   ar
   662   455   446   ar
   663  1571  1562   ar
   664   827   818   ar
   665  3059  3050   ar
   666  2315  2306   ar
   667  2687  2678   ar
   668  1199  1190   ar
   669    83    74   ar
   670   792   802    2
   671   792   788    1
   672   420   430    2
   673   420   416    1
   674  2652  2662   ar
   675  2652  2648    1
   676  3024  3034   ar
   677  3024  3020    1
   678    48    58    2
   679    48    44    1
   680  1908  1918   ar
   681  1908  1904    1
   682  1164  1174   ar
   683  1164  1160    1
   684  2280  2290   ar
   685  2280  2276    1
   686  1536  1546   ar
   687  1536  1532    1
   688  2281  2285    2
   689  2281  2277    1
   690   421   425   ar
   691   421   417    1
   692  2653  2657   ar
   693  2653  2649    1
   694  1909  1913   ar
   695  1909  1905    1
   696  1537  1541   ar
   697  1537  1533    1
   698   793   797   ar
   699   793   789    1
   700    49    53    2
   701    49    45    1
   702  1165  1169    2
   703  1165  1161    1
   704  3025  3029   ar
   705  3025  3021    1
   706  1184  1226    1
   707  1184  1231    1
   708   812   854    1
   709   812   859    1
   710  3044  3086    1
   711  3044  3091    1
   712  2300  2342    1
   713  2300  2347    1
   714    68   110    1
   715    68   115    1
   716  1928  1970    1
   717  1928  1975    1
   718  1556  1598    1
   719  1556  1603    1
   720   440   482    1
   721   440   487    1
   722  2672  2714    1
   723  2672  2719    1
   724  2695  2639    1
   725   463   407    1
   726  1951  1895    1
   727  3067  3011    1
   728  1207  1151    1
   729   835   779    1
   730    91    35    1
   731  1579  1523    1
   732  2323  2267    1
   733  1226  1123    1
   734  2342  2239    1
   735   482   379    1
   736  2714  2611    1
   737   110     7    1
   738  1598  1495    1
   739  1970  1867    1
   740  3086  2983    1
   741   854   751    1
   742    58    25    1
   743  3034  3001    1
   744   430   397    1
   745  2290  2257    1
   746  1174  1141    1
   747  2662  2629    1
   748   802   769    1
   749  1546  1513    1
   750  1918  1885    1
   751  2285  2324    1
   752  3029  3068    1
   753    53    92    1
   754   797   836    1
   755  1913  1952    1
   756  1169  1208    1
   757  1541  1580    1
   758   425   464    1
   759  2657  2696    1
   760   115     3    1
   761  1603  1491    1
   762  1975  1863    1
   763  2347  2235    1
   764   859   747    1
   765  2719  2607    1
   766  1231  1119    1
   767   487   375    1
   768  3091  2979    1
   769  2698  2648    1
   770  2698  2611    1
   771  1210  1160    1
   772  1210  1123    1
   773  1954  1904    1
   774  1954  1867    1
   775  3070  3020    1
   776  3070  2983    1
   777   838   788    1
   778   838   751    1
   779  1582  1532    1
   780  1582  1495    1
   781  2326  2276    1
   782  2326  2239    1
   783    94    44    1
   784    94     7    1
   785   466   416    1
   786   466   379    1
   787    84    19    1
   788    84    60   ar
   789  1572  1507    1
   790  1572  1548   ar
   791  3060  2995    1
   792  3060  3036   ar
   793  2688  2623    1
   794  2688  2664   ar
   795   456   391    1
   796   456   432   ar
   797   828   763    1
   798   828   804   ar
   799  1944  1879    1
   800  1944  1920   ar
   801  1200  1135    1
   802  1200  1176   ar
   803  2316  2251    1
   804  2316  2292   ar
   805  2330  2277    1
   806  2330  2235    1
   807  2702  2649    1
   808  2702  2607    1
   809  1586  1533    1
   810  1586  1491    1
   811   842   789    1
   812   842   747    1
   813  1214  1161    1
   814  1214  1119    1
   815   470   417    1
   816   470   375    1
   817  3074  3021    1
   818  3074  2979    1
   819    98    45    1
   820    98     3    1
   821  1958  1905    1
   822  1958  1863    1
   823    74     9    1
   824    74    60   ar
   825   818   753    1
   826   818   804   ar
   827  1562  1497    1
   828  1562  1548   ar
   829   446   381    1
   830   446   432   ar
   831  1190  1125    1
   832  1190  1176   ar
   833  2306  2241    1
   834  2306  2292   ar
   835  1934  1869    1
   836  1934  1920   ar
   837  3050  2985    1
   838  3050  3036   ar
   839  2678  2613    1
   840  2678  2664   ar
   841   788   844    1
   842  2648  2704    1
   843   416   472    1
   844  3020  3076    1
   845    44   100    1
   846  2276  2332    1
   847  1904  1960    1
   848  1160  1216    1
   849  1532  1588    1
   850  2649  2699    1
   851  1161  1211    1
   852  3021  3071    1
   853    45    95    1
   854  2277  2327    1
   855  1905  1955    1
   856   789   839    1
   857  1533  1583    1
   858   417   467    1
   859  1920  1899    1
   860  3036  3015    1
   861  2664  2643    1
   862   432   411    1
   863  2292  2271    1
   864   804   783    1
   865    60    39    1
   866  1176  1155    1
   867  1548  1527    1
   868  1208  1153    1
   869  1208  1154    1
   870  3068  3013    1
   871  3068  3014    1
   872  2324  2269    1
   873  2324  2270    1
   874   836   781    1
   875   836   782    1
   876  2696  2641    1
   877  2696  2642    1
   878   464   409    1
   879   464   410    1
   880    92    37    1
   881    92    38    1
   882  1952  1897    1
   883  1952  1898    1
   884  1580  1525    1
   885  1580  1526    1
   886  1867  1982    1
   887  1867  1962    1
   888  1867  1964    1
   889  2611  2726    1
   890  2611  2706    1
   891  2611  2708    1
   892  2983  3098    1
   893  2983  3078    1
   894  2983  3080    1
   895   751   866    1
   896   751   846    1
   897   751   848    1
   898  1123  1238    1
   899  1123  1218    1
   900  1123  1220    1
   901   379   494    1
   902   379   474    1
   903   379   476    1
   904  2239  2354    1
   905  2239  2334    1
   906  2239  2336    1
   907     7   122    1
   908     7   102    1
   909     7   104    1
   910  1495  1610    1
   911  1495  1590    1
   912  1495  1592    1
   913     3   107    1
   914     3   105    1
   915  1863  1967    1
   916  1863  1965    1
   917  2979  3083    1
   918  2979  3081    1
   919  1119  1223    1
   920  1119  1221    1
   921  2235  2339    1
   922  2235  2337    1
   923   747   851    1
   924   747   849    1
   925  1491  1595    1
   926  1491  1593    1
   927  2607  2711    1
   928  2607  2709    1
   929   375   479    1
   930   375   477    1
   931  2704  2605    1
   932  2332  2233    1
   933  3076  2977    1
   934   844   745    1
   935   100     1    1
   936  1960  1861    1
   937  1216  1117    1
   938   472   373    1
   939  1588  1489    1
   940    95     6    1
   941  3071  2982    1
   942  1211  1122    1
   943  1583  1494    1
   944  2327  2238    1
   945  1955  1866    1
   946   467   378    1
   947  2699  2610    1
   948   839   750    1
   949  2265  2322    1
   950  1521  1578    1
   951   405   462    1
   952  3009  3066    1
   953  1149  1206    1
   954  1893  1950    1
   955    33    90    1
   956   777   834    1
   957  2637  2694    1
   958   866   776    1
   959  2354  2264    1
   960  1982  1892    1
   961   494   404    1
   962  1238  1148    1
   963  2726  2636    1
   964  1610  1520    1
   965   122    32    1
   966  3098  3008    1
   967   102     1    1
   968   474   373    1
   969  2334  2233    1
   970  1590  1489    1
   971  2706  2605    1
   972  1218  1117    1
   973  3078  2977    1
   974   846   745    1
   975  1962  1861    1
   976  1223  1122    1
   977   107     6    1
   978  2711  2610    1
   979  2339  2238    1
   980  1967  1866    1
   981   479   378    1
   982  3083  2982    1
   983  1595  1494    1
   984   851   750    1
   985  2266  2322    1
   986    34    90    1
   987   778   834    1
   988  2638  2694    1
   989  3010  3066    1
   990   406   462    1
   991  1150  1206    1
   992  1894  1950    1
   993  1522  1578    1
   994  3066  3061    1
   995   834   829    1
   996    90    85    1
   997  1578  1573    1
   998  1950  1945    1
   999  1206  1201    1
  1000  2694  2689    1
  1001  2322  2317    1
  1002   462   457    1
  1003  2708  2605    1
  1004   476   373    1
  1005  1964  1861    1
  1006  3080  2977    1
  1007  1220  1117    1
  1008  1592  1489    1
  1009  2336  2233    1
  1010   104     1    1
  1011   848   745    1
  1012   105     6    1
  1013   477   378    1
  1014  1965  1866    1
  1015  3081  2982    1
  1016  2709  2610    1
  1017  1221  1122    1
  1018  2337  2238    1
  1019   849   750    1
  1020  1593  1494    1
  1021  1130  1196    1
  1022  1502  1568    1
  1023  2990  3056    1
  1024   386   452    1
  1025  2246  2312    1
  1026  2618  2684    1
  1027   758   824    1
  1028    14    80    1
  1029  1874  1940    1
  1030  2248  2319    1
  1031  1132  1203    1
  1032  1504  1575    1
  1033    16    87    1
  1034  2992  3063    1
  1035   388   459    1
  1036  1876  1947    1
  1037   760   831    1
  1038  2620  2691    1
  1039    12    78    1
  1040  2244  2310    1
  1041  1128  1194    1
  1042  1500  1566    1
  1043   384   450    1
  1044  1872  1938    1
  1045  2616  2682    1
  1046  2988  3054    1
  1047   756   822    1
  1048  1861  1978    1
  1049  1861  1980    1
  1050  2605  2722    1
  1051  2605  2724    1
  1052  1489  1606    1
  1053  1489  1608    1
  1054   745   862    1
  1055   745   864    1
  1056  1117  1234    1
  1057  1117  1236    1
  1058     1   118    1
  1059     1   120    1
  1060  2233  2350    1
  1061  2233  2352    1
  1062   373   490    1
  1063   373   492    1
  1064  2977  3094    1
  1065  2977  3096    1
  1066  1122  1229    1
  1067  1122  1227    1
  1068  1122  1363    1
  1069  2238  2345    1
  1070  2238  2343    1
  1071  2238  2479    1
  1072  1494  1601    1
  1073  1494  1599    1
  1074  1494  1735    1
  1075  1866  1973    1
  1076  1866  1971    1
  1077  1866  2107    1
  1078  2610  2717    1
  1079  2610  2715    1
  1080  2610  2851    1
  1081  2982  3089    1
  1082  2982  3087    1
  1083  2982  3223    1
  1084   750   857    1
  1085   750   855    1
  1086   750   991    1
  1087   378   485    1
  1088   378   483    1
  1089   378   619    1
  1090     6   113    1
  1091     6   111    1
  1092     6   247    1
  1093  1201  2312   ar
  1094  1201  1181   ar
  1095    85  1196   ar
  1096    85    65   ar
  1097  2689  2669    1
  1098  2317  2297    1
  1099  1573  2684   ar
  1100  1573  1553   ar
  1101   457  1568   ar
  1102   457   437   ar
  1103  1945  3056   ar
  1104  1945  1925   ar
  1105  3061  3041    1
  1106   829  1940   ar
  1107   829   809   ar
  1108  3056  3042   ar
  1109  1940  1926   ar
  1110  1568  1554   ar
  1111    80    66    1
  1112  2684  2670   ar
  1113  1196  1182   ar
  1114   452   438    1
  1115  2312  2298   ar
  1116   824   810    1
  1117  1203  1303    1
  1118  2319  2419    1
  1119    87   187    1
  1120  2691  2310   ar
  1121  2691  2791   ar
  1122   459    78   ar
  1123   459   559   ar
  1124  1947  1566   ar
  1125  1947  2047   ar
  1126   831   450   ar
  1127   831   931   ar
  1128  1575  1194   ar
  1129  1575  1675   ar
  1130  3063  2682   ar
  1131  3063  3163   ar
  1132  2722  2676    1
  1133  3094  3048    1
  1134  1978  1932    1
  1135  2350  2304    1
  1136   862   816    1
  1137   118    72    1
  1138  1606  1560    1
  1139   490   444    1
  1140  1234  1188    1
  1141  3089  3047    1
  1142   857   815    1
  1143  2717  2675    1
  1144  1601  1559    1
  1145   485   443    1
  1146   113    71    1
  1147  1973  1931    1
  1148  2345  2303    1
  1149  1229  1187    1
  1150  3087  3045    1
  1151   483   441    1
  1152  2343  2301    1
  1153  2715  2673    1
  1154  1599  1557    1
  1155  1971  1929    1
  1156   111    69    1
  1157   855   813    1
  1158  1227  1185    1
  1159   450   560   ar
  1160  1194  1304   ar
  1161  2310  2420   ar
  1162   822   932    1
  1163  3054  3164    1
  1164    78   188   ar
  1165  1938  2048    1
  1166  2682  2792   ar
  1167  1566  1676   ar
  1168   120   194    1
  1169  2352  2426    1
  1170   492   566    1
  1171  1980  2054    1
  1172  3096  3170    1
  1173   864   938    1
  1174  2724  2798    1
  1175  1608  1682    1
  1176  1236  1310    1
  1177  2253  2356    1
  1178  2997  3100    1
  1179  1509  1612    1
  1180    21   124    1
  1181  1137  1240    1
  1182   393   496    1
  1183  2625  2728    1
  1184  1881  1984    1
  1185   765   868    1
  1186    65    71    1
  1187    65  1319   ar
  1188  1181  1187    1
  1189  1181  2435   ar
  1190  2297  2303    2
  1191   809   815    1
  1192   809  2063   ar
  1193  1925  1931    1
  1194  1925  3179   ar
  1195   437   443    1
  1196   437  1691   ar
  1197  2669  2675    2
  1198  3041  3047    2
  1199  1553  1559    1
  1200  1553  2807   ar
  1201  2303  2473    1
  1202  1187  1357    1
  1203   815   985    1
  1204    71   241    1
  1205   443   613    1
  1206  2675  2845    1
  1207  3047  3217    1
  1208  1559  1729    1
  1209  1931  2101    1
  1210  2356  2361    1
  1211  3100  3105    1
  1212  2728  2733    1
  1213   124   129    1
  1214  1612  1617    1
  1215  1240  1245    1
  1216  1984  1989    1
  1217   868   873    1
  1218   496   501    1
  1219   810   816    2
  1220   810   954    1
  1221  2670  2676    1
  1222  2670  2814   ar
  1223  3042  3048    1
  1224  3042  3186   ar
  1225  2298  2304    1
  1226  2298  2442   ar
  1227  1554  1560    1
  1228  1554  1698   ar
  1229   438   444    2
  1230   438   582    1
  1231  1926  1932    1
  1232  1926  2070   ar
  1233  1182  1188    1
  1234  1182  1326   ar
  1235    66    72    2
  1236    66   210    1
  1237   816   982    1
  1238  2676  2842    1
  1239  3048  3214    1
  1240  1560  1726    1
  1241  1932  2098    1
  1242  2304  2470    1
  1243    72   238    1
  1244   444   610    1
  1245  1188  1354    1
  1246   813   931    1
  1247   813   987    1
  1248  1929  2047    1
  1249  1929  2103    1
  1250   441   559    1
  1251   441   615    1
  1252  1557  1675    1
  1253  1557  1731    1
  1254  1185  1303    2
  1255  1185  1359    1
  1256  3045  3163    1
  1257  3045  3219    1
  1258  2301  2419    2
  1259  2301  2475    1
  1260    69   187    2
  1261    69   243    1
  1262  2673  2791    1
  1263  2673  2847    1
  1264  3163  3177   ar
  1265  2791  2805   ar
  1266  1675  1689   ar
  1267  1303  1317    1
  1268  2047  2061   ar
  1269  2419  2433    1
  1270   931   945   ar
  1271   559   573   ar
  1272   187   201    1
  1273  3170  3164    2
  1274  3170  3212    1
  1275  2426  2420    1
  1276  2426  2468    1
  1277  2054  2048    2
  1278  2054  2096    1
  1279   938   932    2
  1280   938   980    1
  1281  1310  1304    1
  1282  1310  1352    1
  1283  1682  1676    1
  1284  1682  1724    1
  1285   566   560    1
  1286   566   608    1
  1287   194   188    1
  1288   194   236    1
  1289  2798  2792    1
  1290  2798  2840    1
  1291   619   518    1
  1292  2479  2378    1
  1293  1363  1262    1
  1294  2851  2750    1
  1295  2107  2006    1
  1296  3223  3122    1
  1297   991   890    1
  1298  1735  1634    1
  1299   247   146    1
  1300  2792  3188   ar
  1301   188   584   ar
  1302   560   956   ar
  1303  1676  2072   ar
  1304  1304  1700   ar
  1305  2420  2816   ar
  1306  2845  2730    1
  1307   613   498    1
  1308  2473  2358    1
  1309  1729  1614    1
  1310  2101  1986    1
  1311   241   126    1
  1312  1357  1242    1
  1313   985   870    1
  1314  3217  3102    1
  1315   610   501    1
  1316  2842  2733    1
  1317  1354  1245    1
  1318  3214  3105    1
  1319  2470  2361    1
  1320   982   873    1
  1321   238   129    1
  1322  2098  1989    1
  1323  1726  1617    1
  1324  1691  1698   ar
  1325  1691   511    1
  1326  2807  2814   ar
  1327  2807  1627    1
  1328  2435  2442   ar
  1329  2435  1255    1
  1330   203   210    2
  1331   947   954    2
  1332   575   582    2
  1333  2063  2070   ar
  1334  2063   883    1
  1335  1319  1326   ar
  1336  1319   139    1
  1337  3179  3186   ar
  1338  3179  1999    1
  1339  2847  2730    1
  1340  2103  1986    1
  1341   615   498    1
  1342  2475  2358    1
  1343  1731  1614    1
  1344   243   126    1
  1345  3219  3102    1
  1346  1359  1242    1
  1347   987   870    1
  1348  1352  1245    1
  1349  1724  1617    1
  1350   236   129    1
  1351   608   501    1
  1352  3212  3105    1
  1353   980   873    1
  1354  2096  1989    1
  1355  2840  2733    1
  1356  2468  2361    1
  1357   954   885    1
  1358  1326  1257    1
  1359   582   513    1
  1360  2070  2001    1
  1361  2814  2745    1
  1362  1698  1629    1
  1363   210   141    1
  1364  3186  3117    1
  1365  2442  2373    1
  1366   945   956   ar
  1367   945   881    1
  1368  2805  2816   ar
  1369  2805  2741    1
  1370  2433  2444    2
  1371  2433  2369    1
  1372  3177  3188   ar
  1373  3177  3113    1
  1374   201   212    2
  1375   201   137    1
  1376   573   584   ar
  1377   573   509    1
  1378  2061  2072   ar
  1379  2061  1997    1
  1380  1317  1328    2
  1381  1317  1253    1
  1382  1689  1700   ar
  1383  1689  1625    1
  1384   584   585    1
  1385  2444  2445    1
  1386  2816  2817    1
  1387   212   213    1
  1388  3188  3189    1
  1389  1328  1329    1
  1390  1700  1701    1
  1391  2072  2073    1
  1392   956   957    1
  1393   129   232    1
  1394   129   230    1
  1395   129   220    1
  1396  1617  1720    1
  1397  1617  1718    1
  1398  1617  1708    1
  1399  1989  2092    1
  1400  1989  2090    1
  1401  1989  2080    1
  1402  2733  2836    1
  1403  2733  2834    1
  1404  2733  2824    1
  1405  1245  1348    1
  1406  1245  1346    1
  1407  1245  1336    1
  1408   873   976    1
  1409   873   974    1
  1410   873   964    1
  1411  2361  2464    1
  1412  2361  2462    1
  1413  2361  2452    1
  1414  3105  3208    1
  1415  3105  3206    1
  1416  3105  3196    1
  1417   501   604    1
  1418   501   602    1
  1419   501   592    1
  1420   498   597    1
  1421   498   599    1
  1422   498   595    1
  1423  1242  1341    1
  1424  1242  1343    1
  1425  1242  1339    1
  1426   126   225    1
  1427   126   227    1
  1428   126   223    1
  1429  2730  2829    1
  1430  2730  2831    1
  1431  2730  2827    1
  1432  2358  2457    1
  1433  2358  2459    1
  1434  2358  2455    1
  1435  1986  2085    1
  1436  1986  2087    1
  1437  1986  2083    1
  1438   870   969    1
  1439   870   971    1
  1440   870   967    1
  1441  3102  3201    1
  1442  3102  3203    1
  1443  3102  3199    1
  1444  1614  1713    1
  1445  1614  1715    1
  1446  1614  1711    1
  1447   899   989    1
  1448  2759  2849    1
  1449   155   245    1
  1450  1643  1733    1
  1451   527   617    1
  1452  2387  2477    1
  1453  2015  2105    1
  1454  1271  1361    1
  1455  3131  3221    1
  1456  3208  3104    1
  1457   976   872    1
  1458  2464  2360    1
  1459   232   128    1
  1460  2092  1988    1
  1461   604   500    1
  1462  1348  1244    1
  1463  2836  2732    1
  1464  1720  1616    1
  1465  2457  2364    1
  1466  3201  3108    1
  1467   597   504    1
  1468  2829  2736    1
  1469  2085  1992    1
  1470  1341  1248    1
  1471  1713  1620    1
  1472   225   132    1
  1473   969   876    1
  1474  2817  2385    1
  1475  2817  2758    1
  1476  3189  2757    1
  1477  3189  3130    1
  1478   213   154    1
  1479  1329  1270    1
  1480   957   525    1
  1481   957   898    1
  1482  1701  1269    1
  1483  1701  1642    1
  1484  2073  1641    1
  1485  2073  2014    1
  1486   585   153    1
  1487   585   526    1
  1488  2445  2386    1
  1489  3206  3104    1
  1490  2090  1988    1
  1491  1718  1616    1
  1492  1346  1244    1
  1493   974   872    1
  1494   230   128    1
  1495   602   500    1
  1496  2462  2360    1
  1497  2834  2732    1
  1498  1343  1248    1
  1499   599   504    1
  1500  2831  2736    1
  1501   227   132    1
  1502  2459  2364    1
  1503  3203  3108    1
  1504  2087  1992    1
  1505  1715  1620    1
  1506   971   876    1
  1507  1361  1248    1
  1508   989   876    1
  1509  2477  2364    1
  1510  2105  1992    1
  1511  2849  2736    1
  1512   245   132    1
  1513  1733  1620    1
  1514  3221  3108    1
  1515   617   504    1
  1516   592   542    1
  1517  2080  2030    1
  1518  2452  2402    1
  1519  1708  1658    1
  1520  2824  2774    1
  1521   964   914    1
  1522  3196  3146    1
  1523   220   170    1
  1524  1336  1286    1
  1525   967   911    1
  1526  2827  2771    1
  1527  1339  1283    1
  1528   595   539    1
  1529  2455  2399    1
  1530  3199  3143    1
  1531  2083  2027    1
  1532  1711  1655    1
  1533   223   167    1
  1534  1616  1709    1
  1535  1616  1728    1
  1536  2360  2453    1
  1537  2360  2472    1
  1538  1988  2081    1
  1539  1988  2100    1
  1540  2732  2825    1
  1541  2732  2844    1
  1542  1244  1337    1
  1543  1244  1356    1
  1544   872   965    1
  1545   872   984    1
  1546   500   593    1
  1547   500   612    1
  1548  3104  3197    1
  1549  3104  3216    1
  1550   128   221    1
  1551   128   240    1
  1552  2364  2449    1
  1553  2364  2465    1
  1554  3108  3193    1
  1555  3108  3209    1
  1556  1248  1333    1
  1557  1248  1349    1
  1558  1620  1705    1
  1559  1620  1721    1
  1560  2736  2821    1
  1561  2736  2837    1
  1562   876   961    1
  1563   876   977    1
  1564  1992  2077    1
  1565  1992  2093    1
  1566   132   217    1
  1567   132   233    1
  1568   504   589    1
  1569   504   605    1
  1570   909   929    1
  1571  2769  2789    1
  1572   165   185    1
  1573  1653  1673    1
  1574  1281  1301    1
  1575  3141  3161    1
  1576  2025  2045    1
  1577   537   557    1
  1578  2397  2417    1
  1579  2756  2782    1
  1580   896   922    1
  1581  3128  3154    1
  1582  2384  2410    1
  1583   524   550    1
  1584  2012  2038    1
  1585  1640  1666    1
  1586   152   178    1
  1587  1268  1294    1
  1588   894   925    1
  1589   522   553    1
  1590  1638  1669    1
  1591  2382  2413    1
  1592  1266  1297    1
  1593   150   181    1
  1594  2010  2041    1
  1595  3126  3157    1
  1596  2754  2785    1
  1597  3161  3175    1
  1598  3161  3181    2
  1599  2045  2059    2
  1600  2045  2065    1
  1601   929   943    2
  1602   929   949    1
  1603  1301  1315   ar
  1604  1301  1321   ar
  1605   185   199   ar
  1606   185   205   ar
  1607  2789  2803    1
  1608  2789  2809    2
  1609  1673  1687   ar
  1610  1673  1693   ar
  1611  2417  2431    1
  1612  2417  2437    2
  1613   557   571   ar
  1614   557   577   ar
  1615  2774  2825    1
  1616  2774  2778    1
  1617   914   965    1
  1618   914   918    1
  1619  2030  2081    1
  1620  2030  2034    1
  1621  1286  1337    1
  1622  1286  1290    1
  1623   542   593    1
  1624   542   546    1
  1625  3146  3197    1
  1626  3146  3150    1
  1627  1658  1709    1
  1628  1658  1662    1
  1629   170   221    1
  1630   170   174    1
  1631  2402  2453    1
  1632  2402  2406    1
  1633   507   571    1
  1634  1251  1315    1
  1635   879   943    1
  1636  2739  2803    1
  1637  3111  3175    1
  1638  1623  1687    1
  1639   135   199    1
  1640  2367  2431    1
  1641  1995  2059    1
  1642   539   589    1
  1643   539   543    1
  1644  1283  1333    1
  1645  1283  1287    1
  1646   167   217    1
  1647   167   171    1
  1648  2399  2449    1
  1649  2399  2403    2
  1650  1655  1705    1
  1651  1655  1659    1
  1652  2771  2821    1
  1653  2771  2775    2
  1654  3143  3193    1
  1655  3143  3147    2
  1656   911   961    1
  1657   911   915    1
  1658  2027  2077    1
  1659  2027  2031    1
  1660   166   205    1
  1661  1282  1321    1
  1662  2398  2437    1
  1663   910   949    1
  1664  2770  2809    1
  1665   538   577    1
  1666  3142  3181    1
  1667  2026  2065    1
  1668  1654  1693    1
  1669   571   950   ar
  1670  1687  2066   ar
  1671  1315  1694   ar
  1672  2803  3182    2
  1673   199   578   ar
  1674  2431  2810    2
  1675   949  2060    2
  1676   577  1688   ar
  1677  1693  2804   ar
  1678  1321  2432   ar
  1679  2065  3176    2
  1680   205  1316   ar
  1681  3216  3167    1
  1682  2844  2795    1
  1683   240   191    1
  1684  2100  2051    1
  1685  1356  1307    1
  1686   612   563    1
  1687   984   935    1
  1688  1728  1679    1
  1689  2472  2423    1
  1690  2038  2034    1
  1691   178   174   ar
  1692   178   552   ar
  1693   550   546   ar
  1694   550   924   ar
  1695  1666  1662   ar
  1696  1666  2040   ar
  1697  2410  2406   ar
  1698  2410  2784   ar
  1699   922   918    1
  1700  2782  2778   ar
  1701  2782  3156   ar
  1702  1294  1290   ar
  1703  1294  1668   ar
  1704  3154  3150    1
  1705  2041  2031   ar
  1706  2041  3152   ar
  1707   181   171   ar
  1708   181  1292   ar
  1709  2413  2403    1
  1710  2785  2775    1
  1711   553   543   ar
  1712   553  1664   ar
  1713  1669  1659   ar
  1714  1669  2780   ar
  1715  1297  1287   ar
  1716  1297  2408   ar
  1717  3157  3147    1
  1718   925   915   ar
  1719   925  2036   ar
  1720  2465  2423    1
  1721   605   563    1
  1722  3209  3167    1
  1723  2093  2051    1
  1724  1349  1307    1
  1725  2837  2795    1
  1726  1721  1679    1
  1727   977   935    1
  1728   233   191    1
  1729  3167  3159    1
  1730  2051  2043    1
  1731  1307  1299    1
  1732  1679  1671    1
  1733   191   183    1
  1734  2795  2787    1
  1735  2423  2415    1
  1736   563   555    1
  1737   935   927    1
  1738  2034  2039    2
  1739   918   923    2
  1740  1290  1295   ar
  1741  2406  2411   ar
  1742  3150  3155    2
  1743  2778  2783   ar
  1744  1662  1667   ar
  1745   546   551   ar
  1746   174   179   ar
  1747  2755  2780    1
  1748  3127  3152    1
  1749   523   548    1
  1750  1639  1664    1
  1751   895   920    1
  1752  2011  2036    1
  1753   151   176    1
  1754  2383  2408    1
  1755  1267  1292    1
  1756  2775  2779    1
  1757  2403  2407    1
  1758  2031  2035   ar
  1759  1287  1291   ar
  1760   915   919   ar
  1761   543   547   ar
  1762   171   175   ar
  1763  3147  3151    1
  1764  1659  1663   ar
  1765   891   924    1
  1766  2751  2784    1
  1767   147   180    1
  1768   519   552    1
  1769  2007  2040    1
  1770  1263  1296    1
  1771  2379  2412    1
  1772  3123  3156    1
  1773  1635  1668    1
  1774   578   516    1
  1775   578  1674   ar
  1776  1694  1632    1
  1777  1694  2790   ar
  1778  3182  3120    1
  1779  1322  1260    1
  1780  1322  2418    1
  1781  2066  2004    1
  1782  2066  3162   ar
  1783  2810  2748    1
  1784   950   888    1
  1785   950  2046   ar
  1786  2438  2376    1
  1787   206   144    1
  1788   206  1302    1
  1789  2780  2776   ar
  1790  1664  1660   ar
  1791  2408  2404   ar
  1792  2036  2032   ar
  1793   920   916    1
  1794  3152  3148   ar
  1795  1292  1288   ar
  1796   548   544    1
  1797   176   172    1
  1798   572   506    1
  1799   572   930    1
  1800  3176  3110    1
  1801   944   878    1
  1802  1688  1622    1
  1803  1688  2046   ar
  1804  2432  2366    1
  1805  2432  2790   ar
  1806   200   134    1
  1807   200   558    1
  1808  2060  1994    1
  1809  2804  2738    1
  1810  2804  3162   ar
  1811  1316  1250    1
  1812  1316  1674   ar
  1813   180   173    1
  1814   924   917   ar
  1815   552   545   ar
  1816  2040  2033   ar
  1817  2412  2405    1
  1818  1296  1289    1
  1819  2784  2777   ar
  1820  3156  3149   ar
  1821  1668  1661   ar
  1822  2046  2052    1
  1823  3162  3168    1
  1824  2790  2796    1
  1825  2418  2424    2
  1826  1674  1680    1
  1827   186   192    1
  1828   558   564    2
  1829   930   936    2
  1830  1302  1308    2
  1831  1671  1685   ar
  1832  1671  1695   ar
  1833   927   941   ar
  1834   927   951   ar
  1835  3159  3173   ar
  1836  3159  3183   ar
  1837  1299  1313   ar
  1838  1299  1323   ar
  1839  2787  2801   ar
  1840  2787  2811   ar
  1841  2043  2057   ar
  1842  2043  2067   ar
  1843   555   569   ar
  1844   555   579   ar
  1845  2415  2429   ar
  1846  2415  2439   ar
  1847   183   197   ar
  1848   183   207   ar
  1849  1280  1313    1
  1850  2396  2429    1
  1851   164   197    1
  1852  3140  3173    1
  1853   908   941    1
  1854  2024  2057    1
  1855   536   569    1
  1856  1652  1685    1
  1857  2768  2801    1
  1858  2374  2439    1
  1859  2746  2811    1
  1860   142   207    1
  1861   514   579    1
  1862  1258  1323    1
  1863   886   951    1
  1864  2002  2067    1
  1865  1630  1695    1
  1866  3118  3183    1
  1867  1295  1264    1
  1868  1295  1665   ar
  1869  2411  2380    1
  1870  2411  2781   ar
  1871  3155  3124    1
  1872  2783  2752    1
  1873  2783  3153   ar
  1874   923   892    1
  1875  2039  2008    1
  1876  1667  1636    1
  1877  1667  2037   ar
  1878   551   520    1
  1879   551   921   ar
  1880   179   148    1
  1881   179   549   ar
  1882  2392  2447    1
  1883  2764  2819    1
  1884   160   215    1
  1885  1276  1331    1
  1886   904   959    1
  1887   532   587    1
  1888  1648  1703    1
  1889  2020  2075    1
  1890  3136  3191    1
  1891   197   208   ar
  1892  2057  2068   ar
  1893  2801  2812   ar
  1894  2429  2440   ar
  1895   569   580   ar
  1896  3173  3184   ar
  1897  1313  1324   ar
  1898   941   952   ar
  1899  1685  1696   ar
  1900  1663  1703    1
  1901  1663  2786   ar
  1902  2779  2819    1
  1903  1291  1331    1
  1904  1291  2414   ar
  1905   175   215    1
  1906   175  1298   ar
  1907  3151  3191    1
  1908  2035  2075    1
  1909  2035  3158   ar
  1910  2407  2447    1
  1911   547   587    1
  1912   547  1670   ar
  1913   919   959    1
  1914   919  2042   ar
  1915  1695  1686   ar
  1916   207   198   ar
  1917  2439  2430   ar
  1918  2811  2802   ar
  1919  1323  1314   ar
  1920   951   942   ar
  1921  3183  3174   ar
  1922  2067  2058   ar
  1923   579   570   ar
  1924   916   926    2
  1925   916   912    1
  1926   172   182    2
  1927   172   168    1
  1928  1288  1298   ar
  1929  1288  1284    1
  1930  3148  3158   ar
  1931  3148  3144    1
  1932   544   554    2
  1933   544   540    1
  1934  2404  2414   ar
  1935  2404  2400    1
  1936  1660  1670   ar
  1937  1660  1656    1
  1938  2776  2786   ar
  1939  2776  2772    1
  1940  2032  2042   ar
  1941  2032  2028    1
  1942   545   549   ar
  1943   545   541    1
  1944   173   177    2
  1945   173   169    1
  1946  2405  2409    2
  1947  2405  2401    1
  1948   917   921   ar
  1949   917   913    1
  1950  2033  2037   ar
  1951  2033  2029    1
  1952  3149  3153   ar
  1953  3149  3145    1
  1954  2777  2781   ar
  1955  2777  2773    1
  1956  1661  1665   ar
  1957  1661  1657    1
  1958  1289  1293    2
  1959  1289  1285    1
  1960  2052  2094    1
  1961  2052  2099    1
  1962   564   606    1
  1963   564   611    1
  1964   936   978    1
  1965   936   983    1
  1966  1680  1722    1
  1967  1680  1727    1
  1968  3168  3210    1
  1969  3168  3215    1
  1970  1308  1350    1
  1971  1308  1355    1
  1972  2424  2466    1
  1973  2424  2471    1
  1974   192   234    1
  1975   192   239    1
  1976  2796  2838    1
  1977  2796  2843    1
  1978  1331  1275    1
  1979   587   531    1
  1980  2075  2019    1
  1981  2819  2763    1
  1982   959   903    1
  1983  3191  3135    1
  1984  1703  1647    1
  1985   215   159    1
  1986  2447  2391    1
  1987  2838  2735    1
  1988  1350  1247    1
  1989   978   875    1
  1990   234   131    1
  1991  2094  1991    1
  1992  1722  1619    1
  1993   606   503    1
  1994  3210  3107    1
  1995  2466  2363    1
  1996  1298  1265    1
  1997   182   149    1
  1998   926   893    1
  1999  2042  2009    1
  2000  2414  2381    1
  2001  1670  1637    1
  2002  3158  3125    1
  2003  2786  2753    1
  2004   554   521    1
  2005  1293  1332    1
  2006  2409  2448    1
  2007   549   588    1
  2008  2037  2076    1
  2009   177   216    1
  2010  3153  3192    1
  2011  2781  2820    1
  2012  1665  1704    1
  2013   921   960    1
  2014  3215  3103    1
  2015  1355  1243    1
  2016  2843  2731    1
  2017   983   871    1
  2018   239   127    1
  2019  2099  1987    1
  2020   611   499    1
  2021  1727  1615    1
  2022  2471  2359    1
  2023  1706  1656    1
  2024  1706  1619    1
  2025  1334  1284    1
  2026  1334  1247    1
  2027  2822  2772    1
  2028  2822  2735    1
  2029   590   540    1
  2030   590   503    1
  2031   962   912    1
  2032   962   875    1
  2033  2450  2400    1
  2034  2450  2363    1
  2035  3194  3144    1
  2036  3194  3107    1
  2037   218   168    1
  2038   218   131    1
  2039  2078  2028    1
  2040  2078  1991    1
  2041   580   515    1
  2042   580   556   ar
  2043   952   887    1
  2044   952   928   ar
  2045  3184  3119    1
  2046  3184  3160   ar
  2047  2068  2003    1
  2048  2068  2044   ar
  2049  1324  1259    1
  2050  1324  1300   ar
  2051  2440  2375    1
  2052  2440  2416   ar
  2053  1696  1631    1
  2054  1696  1672   ar
  2055   208   143    1
  2056   208   184   ar
  2057  2812  2747    1
  2058  2812  2788   ar
  2059  2826  2773    1
  2060  2826  2731    1
  2061   966   913    1
  2062   966   871    1
  2063   222   169    1
  2064   222   127    1
  2065  2082  2029    1
  2066  2082  1987    1
  2067  1710  1657    1
  2068  1710  1615    1
  2069  2454  2401    1
  2070  2454  2359    1
  2071  3198  3145    1
  2072  3198  3103    1
  2073   594   541    1
  2074   594   499    1
  2075  1338  1285    1
  2076  1338  1243    1
  2077   570   505    1
  2078   570   556   ar
  2079  1686  1621    1
  2080  1686  1672   ar
  2081  3174  3109    1
  2082  3174  3160   ar
  2083  2802  2737    1
  2084  2802  2788   ar
  2085   942   877    1
  2086   942   928   ar
  2087  1314  1249    1
  2088  1314  1300   ar
  2089  2058  1993    1
  2090  2058  2044   ar
  2091   198   133    1
  2092   198   184   ar
  2093  2430  2365    1
  2094  2430  2416   ar
  2095  2400  2456    1
  2096   912   968    1
  2097  1284  1340    1
  2098  2028  2084    1
  2099  2772  2828    1
  2100   168   224    1
  2101  1656  1712    1
  2102   540   596    1
  2103  3144  3200    1
  2104   169   219    1
  2105  1657  1707    1
  2106   541   591    1
  2107  1285  1335    1
  2108  3145  3195    1
  2109  2401  2451    1
  2110   913   963    1
  2111  2029  2079    1
  2112  2773  2823    1
  2113  1300  1279    1
  2114   184   163    1
  2115   928   907    1
  2116  3160  3139    1
  2117  2044  2023    1
  2118  2788  2767    1
  2119  1672  1651    1
  2120   556   535    1
  2121  2416  2395    1
  2122  1704  1649    1
  2123  1704  1650    1
  2124   216   161    1
  2125   216   162    1
  2126   960   905    1
  2127   960   906    1
  2128  2448  2393    1
  2129  2448  2394    1
  2130   588   533    1
  2131   588   534    1
  2132  3192  3137    1
  2133  3192  3138    1
  2134  1332  1277    1
  2135  1332  1278    1
  2136  2076  2021    1
  2137  2076  2022    1
  2138  2820  2765    1
  2139  2820  2766    1
  2140  2735  2850    1
  2141  2735  2830    1
  2142  2735  2832    1
  2143   875   990    1
  2144   875   970    1
  2145   875   972    1
  2146   503   618    1
  2147   503   598    1
  2148   503   600    1
  2149  2363  2478    1
  2150  2363  2458    1
  2151  2363  2460    1
  2152  1619  1734    1
  2153  1619  1714    1
  2154  1619  1716    1
  2155  1991  2106    1
  2156  1991  2086    1
  2157  1991  2088    1
  2158  3107  3222    1
  2159  3107  3202    1
  2160  3107  3204    1
  2161  1247  1362    1
  2162  1247  1342    1
  2163  1247  1344    1
  2164   131   246    1
  2165   131   226    1
  2166   131   228    1
  2167  1987  2091    1
  2168  1987  2089    1
  2169   499   603    1
  2170   499   601    1
  2171  3103  3207    1
  2172  3103  3205    1
  2173  2731  2835    1
  2174  2731  2833    1
  2175   127   231    1
  2176   127   229    1
  2177  1243  1347    1
  2178  1243  1345    1
  2179  2359  2463    1
  2180  2359  2461    1
  2181  1615  1719    1
  2182  1615  1717    1
  2183   871   975    1
  2184   871   973    1
  2185  3200  3101    1
  2186   968   869    1
  2187  1712  1613    1
  2188   596   497    1
  2189  2456  2357    1
  2190  1340  1241    1
  2191  2084  1985    1
  2192  2828  2729    1
  2193   224   125    1
  2194  3195  3106    1
  2195  2079  1990    1
  2196   219   130    1
  2197  1707  1618    1
  2198   591   502    1
  2199  2823  2734    1
  2200  1335  1246    1
  2201   963   874    1
  2202  2451  2362    1
  2203   529   586    1
  2204  1645  1702    1
  2205  2017  2074    1
  2206  2389  2446    1
  2207  2761  2818    1
  2208  3133  3190    1
  2209   157   214    1
  2210  1273  1330    1
  2211   901   958    1
  2212  3222  3132    1
  2213   618   528    1
  2214  1362  1272    1
  2215  2478  2388    1
  2216  2106  2016    1
  2217   246   156    1
  2218  1734  1644    1
  2219  2850  2760    1
  2220   990   900    1
  2221   598   497    1
  2222  2458  2357    1
  2223   970   869    1
  2224  2086  1985    1
  2225  2830  2729    1
  2226  1342  1241    1
  2227  1714  1613    1
  2228   226   125    1
  2229  3202  3101    1
  2230  2463  2362    1
  2231  3207  3106    1
  2232  2091  1990    1
  2233   603   502    1
  2234  1347  1246    1
  2235  2835  2734    1
  2236  1719  1618    1
  2237   231   130    1
  2238   975   874    1
  2239   158   214    1
  2240  1274  1330    1
  2241  1646  1702    1
  2242   902   958    1
  2243  3134  3190    1
  2244  2390  2446    1
  2245  2762  2818    1
  2246  2018  2074    1
  2247   530   586    1
  2248  1330  1325    1
  2249  3190  3185    1
  2250  2074  2069    1
  2251  2818  2813    1
  2252   586   581    1
  2253  2446  2441    1
  2254   214   209    1
  2255  1702  1697    1
  2256   958   953    1
  2257   228   125    1
  2258  1716  1613    1
  2259   972   869    1
  2260  2460  2357    1
  2261  2832  2729    1
  2262   600   497    1
  2263  3204  3101    1
  2264  2088  1985    1
  2265  1344  1241    1
  2266  2089  1990    1
  2267   601   502    1
  2268   973   874    1
  2269  2461  2362    1
  2270  3205  3106    1
  2271   229   130    1
  2272  2833  2734    1
  2273  1717  1618    1
  2274  1345  1246    1
  2275  1254  1320    1
  2276  2370  2436    1
  2277  2742  2808    1
  2278  3114  3180    1
  2279   510   576    1
  2280   882   948    1
  2281  1626  1692    1
  2282   138   204    1
  2283  1998  2064    1
  2284  2744  2815    1
  2285  1256  1327    1
  2286  1628  1699    1
  2287  3116  3187    1
  2288   512   583    1
  2289   140   211    1
  2290   884   955    1
  2291  2372  2443    1
  2292  2000  2071    1
  2293   880   946    1
  2294  1252  1318    1
  2295  2740  2806    1
  2296   508   574    1
  2297  1624  1690    1
  2298   136   202    1
  2299  2368  2434    1
  2300  1996  2062    1
  2301  3112  3178    1
  2302  1985  2102    1
  2303  1985  2104    1
  2304  3101  3218    1
  2305  3101  3220    1
  2306  2357  2474    1
  2307  2357  2476    1
  2308  1613  1730    1
  2309  1613  1732    1
  2310   497   614    1
  2311   497   616    1
  2312   869   986    1
  2313   869   988    1
  2314  1241  1358    1
  2315  1241  1360    1
  2316  2729  2846    1
  2317  2729  2848    1
  2318   125   242    1
  2319   125   244    1
  2320  1618  1725    1
  2321  1618  1723    1
  2322  1618  1859    1
  2323   502   609    1
  2324   502   607    1
  2325   502   743    1
  2326  3106  3213    1
  2327  3106  3211    1
  2328  3106  3347    1
  2329  1990  2097    1
  2330  1990  2095    1
  2331  1990  2231    1
  2332   874   981    1
  2333   874   979    1
  2334   874  1115    1
  2335  2734  2841    1
  2336  2734  2839    1
  2337  2734  2975    1
  2338  2362  2469    1
  2339  2362  2467    1
  2340  2362  2603    1
  2341   130   237    1
  2342   130   235    1
  2343   130   371    1
  2344  1246  1353    1
  2345  1246  1351    1
  2346  1246  1487    1
  2347   953  2064   ar
  2348   953   933   ar
  2349  1325  2436   ar
  2350  1325  1305   ar
  2351  1697  2808   ar
  2352  1697  1677   ar
  2353  2069  3180   ar
  2354  2069  2049   ar
  2355  2441  2421    1
  2356  3185  3165    1
  2357  2813  2793    1
  2358   581  1692   ar
  2359   581   561   ar
  2360   209  1320   ar
  2361   209   189   ar
  2362  2436  2422   ar
  2363  2808  2794   ar
  2364   576   562    1
  2365  1692  1678   ar
  2366  1320  1306   ar
  2367   204   190    1
  2368  3180  3166   ar
  2369  2064  2050   ar
  2370   948   934    1
  2371  1699  1318   ar
  2372  1699  1799   ar
  2373   955   574   ar
  2374   955  1055   ar
  2375   211   311    1
  2376  3187  2806   ar
  2377  3187  3287   ar
  2378  2815  2434   ar
  2379  2815  2915   ar
  2380   583   202   ar
  2381   583   683   ar
  2382  2071  1690   ar
  2383  2071  2171   ar
  2384  2443  2543    1
  2385  1327  1427    1
  2386   986   940    1
  2387   614   568    1
  2388  1358  1312    1
  2389   242   196    1
  2390  2474  2428    1
  2391  2846  2800    1
  2392  2102  2056    1
  2393  3218  3172    1
  2394  1730  1684    1
  2395   981   939    1
  2396   609   567    1
  2397  3213  3171    1
  2398  1725  1683    1
  2399  2469  2427    1
  2400   237   195    1
  2401  2097  2055    1
  2402  1353  1311    1
  2403  2841  2799    1
  2404  2095  2053    1
  2405  1351  1309    1
  2406  3211  3169    1
  2407  2467  2425    1
  2408   979   937    1
  2409  1723  1681    1
  2410   235   193    1
  2411  2839  2797    1
  2412   607   565    1
  2413  1318  1428   ar
  2414   574   684   ar
  2415  1690  1800   ar
  2416  2434  2544   ar
  2417   946  1056    1
  2418   202   312   ar
  2419  2062  2172    1
  2420  3178  3288    1
  2421  2806  2916   ar
  2422   616   690    1
  2423  2848  2922    1
  2424  1360  1434    1
  2425  2104  2178    1
  2426  2476  2550    1
  2427   244   318    1
  2428   988  1062    1
  2429  1732  1806    1
  2430  3220  3294    1
  2431   145   248    1
  2432  3121  3224    1
  2433  1261  1364    1
  2434  2005  2108    1
  2435   889   992    1
  2436  2377  2480    1
  2437  1633  1736    1
  2438   517   620    1
  2439  2749  2852    1
  2440   189   195    1
  2441   189  1443   ar
  2442  1305  1311    1
  2443  1305  2559   ar
  2444   561   567    1
  2445   561  1815   ar
  2446  3165  3171    2
  2447  2049  2055    1
  2448  2049  3303   ar
  2449   933   939    1
  2450   933  2187   ar
  2451  2793  2799    2
  2452  2421  2427    2
  2453  1677  1683    1
  2454  1677  2931   ar
  2455  2055  2225    1
  2456   567   737    1
  2457  1311  1481    1
  2458  1683  1853    1
  2459  2799  2969    1
  2460  2427  2597    1
  2461   939  1109    1
  2462  3171  3341    1
  2463   195   365    1
  2464   992   997    1
  2465  2852  2857    1
  2466   620   625    1
  2467  2480  2485    1
  2468  2108  2113    1
  2469   248   253    1
  2470  3224  3229    1
  2471  1736  1741    1
  2472  1364  1369    1
  2473  3166  3172    1
  2474  3166  3310   ar
  2475  2422  2428    1
  2476  2422  2566   ar
  2477   190   196    2
  2478   190   334    1
  2479   934   940    2
  2480   934  1078    1
  2481  2050  2056    1
  2482  2050  2194   ar
  2483  1306  1312    1
  2484  1306  1450   ar
  2485   562   568    2
  2486   562   706    1
  2487  2794  2800    1
  2488  2794  2938   ar
  2489  1678  1684    1
  2490  1678  1822   ar
  2491   568   734    1
  2492  3172  3338    1
  2493  2056  2222    1
  2494  2800  2966    1
  2495  2428  2594    1
  2496   196   362    1
  2497  1684  1850    1
  2498  1312  1478    1
  2499   940  1106    1
  2500   193   311    2
  2501   193   367    1
  2502  2053  2171    1
  2503  2053  2227    1
  2504  2425  2543    2
  2505  2425  2599    1
  2506  3169  3287    1
  2507  3169  3343    1
  2508   937  1055    1
  2509   937  1111    1
  2510   565   683    1
  2511   565   739    1
  2512  1309  1427    2
  2513  1309  1483    1
  2514  1681  1799    1
  2515  1681  1855    1
  2516  2797  2915    1
  2517  2797  2971    1
  2518  3287  3301   ar
  2519  1427  1441    1
  2520  2171  2185   ar
  2521   311   325    1
  2522  2915  2929   ar
  2523   683   697   ar
  2524  1055  1069   ar
  2525  1799  1813   ar
  2526  2543  2557    1
  2527  2922  2916    1
  2528  2922  2964    1
  2529  2550  2544    1
  2530  2550  2592    1
  2531  2178  2172    2
  2532  2178  2220    1
  2533  3294  3288    2
  2534  3294  3336    1
  2535  1806  1800    1
  2536  1806  1848    1
  2537   690   684    1
  2538   690   732    1
  2539  1062  1056    2
  2540  1062  1104    1
  2541  1434  1428    1
  2542  1434  1476    1
  2543   318   312    1
  2544   318   360    1
  2545  2975  2874    1
  2546   371   270    1
  2547  2603  2502    1
  2548  3347  3246    1
  2549  1115  1014    1
  2550  2231  2130    1
  2551  1487  1386    1
  2552   743   642    1
  2553  1859  1758    1
  2554  2544  2940   ar
  2555  1428  1824   ar
  2556  2916  3312   ar
  2557   684  1080   ar
  2558  1800  2196   ar
  2559   312   708   ar
  2560  2969  2854    1
  2561  1853  1738    1
  2562  1109   994    1
  2563  2597  2482    1
  2564   365   250    1
  2565  1481  1366    1
  2566   737   622    1
  2567  2225  2110    1
  2568  3341  3226    1
  2569   734   625    1
  2570  1478  1369    1
  2571  3338  3229    1
  2572  2594  2485    1
  2573  1106   997    1
  2574  2966  2857    1
  2575   362   253    1
  2576  1850  1741    1
  2577  2222  2113    1
  2578   327   334    2
  2579  3303  3310   ar
  2580  3303  2123    1
  2581  1071  1078    2
  2582  2187  2194   ar
  2583  2187  1007    1
  2584   699   706    2
  2585  1443  1450   ar
  2586  1443   263    1
  2587  2931  2938   ar
  2588  2931  1751    1
  2589  2559  2566   ar
  2590  2559  1379    1
  2591  1815  1822   ar
  2592  1815   635    1
  2593   367   250    1
  2594  2227  2110    1
  2595   739   622    1
  2596  1483  1366    1
  2597  2971  2854    1
  2598  2599  2482    1
  2599  3343  3226    1
  2600  1111   994    1
  2601  1855  1738    1
  2602  3336  3229    1
  2603  2964  2857    1
  2604  1848  1741    1
  2605  2220  2113    1
  2606  1476  1369    1
  2607   360   253    1
  2608  2592  2485    1
  2609  1104   997    1
  2610   732   625    1
  2611   334   265    1
  2612  1822  1753    1
  2613  3310  3241    1
  2614  1450  1381    1
  2615   706   637    1
  2616  2194  2125    1
  2617  2938  2869    1
  2618  2566  2497    1
  2619  1078  1009    1
  2620  1441  1452    2
  2621  1441  1377    1
  2622  3301  3312   ar
  2623  3301  3237    1
  2624  2557  2568    2
  2625  2557  2493    1
  2626  1813  1824   ar
  2627  1813  1749    1
  2628  2929  2940   ar
  2629  2929  2865    1
  2630   697   708   ar
  2631   697   633    1
  2632   325   336    2
  2633   325   261    1
  2634  2185  2196   ar
  2635  2185  2121    1
  2636  1069  1080   ar
  2637  1069  1005    1
  2638  2940  2941    1
  2639  2196  2197    1
  2640  2568  2569    1
  2641  1080  1081    1
  2642  3312  3313    1
  2643   336   337    1
  2644  1824  1825    1
  2645   708   709    1
  2646  1452  1453    1
  2647   625   728    1
  2648   625   726    1
  2649   625   716    1
  2650  2113  2216    1
  2651  2113  2214    1
  2652  2113  2204    1
  2653  2857  2960    1
  2654  2857  2958    1
  2655  2857  2948    1
  2656   997  1100    1
  2657   997  1098    1
  2658   997  1088    1
  2659  1741  1844    1
  2660  1741  1842    1
  2661  1741  1832    1
  2662   253   356    1
  2663   253   354    1
  2664   253   344    1
  2665  1369  1472    1
  2666  1369  1470    1
  2667  1369  1460    1
  2668  3229  3332    1
  2669  3229  3330    1
  2670  3229  3320    1
  2671  2485  2588    1
  2672  2485  2586    1
  2673  2485  2576    1
  2674   994  1093    1
  2675   994  1095    1
  2676   994  1091    1
  2677  1738  1837    1
  2678  1738  1839    1
  2679  1738  1835    1
  2680  2110  2209    1
  2681  2110  2211    1
  2682  2110  2207    1
  2683  2854  2953    1
  2684  2854  2955    1
  2685  2854  2951    1
  2686   250   349    1
  2687   250   351    1
  2688   250   347    1
  2689  2482  2581    1
  2690  2482  2583    1
  2691  2482  2579    1
  2692   622   721    1
  2693   622   723    1
  2694   622   719    1
  2695  3226  3325    1
  2696  3226  3327    1
  2697  3226  3323    1
  2698  1366  1465    1
  2699  1366  1467    1
  2700  1366  1463    1
  2701  1023  1113    1
  2702  1767  1857    1
  2703   279   369    1
  2704  2511  2601    1
  2705  2883  2973    1
  2706   651   741    1
  2707  1395  1485    1
  2708  3255  3345    1
  2709  2139  2229    1
  2710  2960  2856    1
  2711  3332  3228    1
  2712  1844  1740    1
  2713   728   624    1
  2714  1100   996    1
  2715  2588  2484    1
  2716  1472  1368    1
  2717  2216  2112    1
  2718   356   252    1
  2719  1837  1744    1
  2720  3325  3232    1
  2721  2209  2116    1
  2722  2581  2488    1
  2723  1465  1372    1
  2724   721   628    1
  2725  1093  1000    1
  2726  2953  2860    1
  2727   349   256    1
  2728  3313  2881    1
  2729  3313  3254    1
  2730   337   278    1
  2731  1453  1394    1
  2732   709   277    1
  2733   709   650    1
  2734  2569  2510    1
  2735  1825  1393    1
  2736  1825  1766    1
  2737  2197  1765    1
  2738  2197  2138    1
  2739  2941  2509    1
  2740  2941  2882    1
  2741  1081   649    1
  2742  1081  1022    1
  2743  2586  2484    1
  2744   726   624    1
  2745  2214  2112    1
  2746  1470  1368    1
  2747  3330  3228    1
  2748  1098   996    1
  2749  2958  2856    1
  2750  1842  1740    1
  2751   354   252    1
  2752  2955  2860    1
  2753  1839  1744    1
  2754  1467  1372    1
  2755  2211  2116    1
  2756   723   628    1
  2757  3327  3232    1
  2758  1095  1000    1
  2759  2583  2488    1
  2760   351   256    1
  2761  2601  2488    1
  2762  1857  1744    1
  2763  2973  2860    1
  2764  3345  3232    1
  2765   369   256    1
  2766  1485  1372    1
  2767  1113  1000    1
  2768  2229  2116    1
  2769   741   628    1
  2770  2204  2154    1
  2771  2576  2526    1
  2772  1460  1410    1
  2773   344   294    1
  2774  1088  1038    1
  2775  3320  3270    1
  2776   716   666    1
  2777  2948  2898    1
  2778  1832  1782    1
  2779  1091  1035    1
  2780  2207  2151    1
  2781  1463  1407    1
  2782  2579  2523    1
  2783  3323  3267    1
  2784  2951  2895    1
  2785   347   291    1
  2786  1835  1779    1
  2787   719   663    1
  2788   252   345    1
  2789   252   364    1
  2790  1740  1833    1
  2791  1740  1852    1
  2792   996  1089    1
  2793   996  1108    1
  2794  2856  2949    1
  2795  2856  2968    1
  2796  3228  3321    1
  2797  3228  3340    1
  2798  2484  2577    1
  2799  2484  2596    1
  2800   624   717    1
  2801   624   736    1
  2802  2112  2205    1
  2803  2112  2224    1
  2804  1368  1461    1
  2805  1368  1480    1
  2806  2116  2201    1
  2807  2116  2217    1
  2808  3232  3317    1
  2809  3232  3333    1
  2810   628   713    1
  2811   628   729    1
  2812  1372  1457    1
  2813  1372  1473    1
  2814  1000  1085    1
  2815  1000  1101    1
  2816  2860  2945    1
  2817  2860  2961    1
  2818   256   341    1
  2819   256   357    1
  2820  1744  1829    1
  2821  1744  1845    1
  2822  2488  2573    1
  2823  2488  2589    1
  2824  3265  3285    1
  2825  1405  1425    1
  2826  1033  1053    1
  2827  2521  2541    1
  2828   661   681    1
  2829  2149  2169    1
  2830  2893  2913    1
  2831   289   309    1
  2832  1777  1797    1
  2833  1020  1046    1
  2834   648   674    1
  2835  3252  3278    1
  2836   276   302    1
  2837  1764  1790    1
  2838  1392  1418    1
  2839  2880  2906    1
  2840  2136  2162    1
  2841  2508  2534    1
  2842  1018  1049    1
  2843  1762  1793    1
  2844   274   305    1
  2845  2506  2537    1
  2846  2134  2165    1
  2847  2878  2909    1
  2848   646   677    1
  2849  3250  3281    1
  2850  1390  1421    1
  2851  1053  1067    2
  2852  1053  1073    1
  2853  1425  1439   ar
  2854  1425  1445   ar
  2855  1797  1811   ar
  2856  1797  1817   ar
  2857   309   323   ar
  2858   309   329   ar
  2859  3285  3299    1
  2860  3285  3305    2
  2861  2913  2927    1
  2862  2913  2933    2
  2863  2169  2183    2
  2864  2169  2189    1
  2865  2541  2555    1
  2866  2541  2561    2
  2867   681   695   ar
  2868   681   701   ar
  2869  2898  2949    1
  2870  2898  2902    1
  2871  1782  1833    1
  2872  1782  1786    1
  2873  1038  1089    1
  2874  1038  1042    1
  2875   666   717    1
  2876   666   670    1
  2877  3270  3321    1
  2878  3270  3274    1
  2879   294   345    1
  2880   294   298    1
  2881  2154  2205    1
  2882  2154  2158    1
  2883  2526  2577    1
  2884  2526  2530    1
  2885  1410  1461    1
  2886  1410  1414    1
  2887  1375  1439    1
  2888  1003  1067    1
  2889  2491  2555    1
  2890   631   695    1
  2891  2119  2183    1
  2892  1747  1811    1
  2893  3235  3299    1
  2894  2863  2927    1
  2895   259   323    1
  2896  2523  2573    1
  2897  2523  2527    2
  2898   663   713    1
  2899   663   667    1
  2900  2895  2945    1
  2901  2895  2899    2
  2902  3267  3317    1
  2903  3267  3271    2
  2904  1779  1829    1
  2905  1779  1783    1
  2906  1035  1085    1
  2907  1035  1039    1
  2908   291   341    1
  2909   291   295    1
  2910  2151  2201    1
  2911  2151  2155    1
  2912  1407  1457    1
  2913  1407  1411    1
  2914  1778  1817    1
  2915   662   701    1
  2916  2522  2561    1
  2917   290   329    1
  2918  2150  2189    1
  2919  1406  1445    1
  2920  1034  1073    1
  2921  2894  2933    1
  2922  3266  3305    1
  2923  2927  3306    2
  2924   695  1074   ar
  2925  2555  2934    2
  2926   323   702   ar
  2927  1811  2190   ar
  2928  1439  1818   ar
  2929  1817  2928   ar
  2930   701  1812   ar
  2931  1445  2556   ar
  2932   329  1440   ar
  2933  2189  3300    2
  2934  1073  2184    2
  2935  2596  2547    1
  2936  1480  1431    1
  2937   364   315    1
  2938  2968  2919    1
  2939   736   687    1
  2940  1852  1803    1
  2941  1108  1059    1
  2942  2224  2175    1
  2943  3340  3291    1
  2944  2534  2530   ar
  2945  2534  2908   ar
  2946  2162  2158    1
  2947   674   670   ar
  2948   674  1048   ar
  2949  3278  3274    1
  2950   302   298   ar
  2951   302   676   ar
  2952  1790  1786   ar
  2953  1790  2164   ar
  2954  1046  1042    1
  2955  2906  2902   ar
  2956  2906  3280   ar
  2957  1418  1414   ar
  2958  1418  1792   ar
  2959   677   667   ar
  2960   677  1788   ar
  2961  1049  1039   ar
  2962  1049  2160   ar
  2963  2165  2155   ar
  2964  2165  3276   ar
  2965  2909  2899    1
  2966  3281  3271    1
  2967   305   295   ar
  2968   305  1416   ar
  2969  1793  1783   ar
  2970  1793  2904   ar
  2971  2537  2527    1
  2972  1421  1411   ar
  2973  1421  2532   ar
  2974  2961  2919    1
  2975  1101  1059    1
  2976  2589  2547    1
  2977  2217  2175    1
  2978   729   687    1
  2979  3333  3291    1
  2980  1845  1803    1
  2981  1473  1431    1
  2982   357   315    1
  2983  2547  2539    1
  2984  3291  3283    1
  2985  1803  1795    1
  2986   315   307    1
  2987  1431  1423    1
  2988   687   679    1
  2989  2175  2167    1
  2990  1059  1051    1
  2991  2919  2911    1
  2992  2158  2163    2
  2993  3274  3279    2
  2994  1414  1419   ar
  2995  2530  2535   ar
  2996   670   675   ar
  2997  2902  2907   ar
  2998  1042  1047    2
  2999   298   303   ar
  3000  1786  1791   ar
  3001  1763  1788    1
  3002  1019  1044    1
  3003   275   300    1
  3004  1391  1416    1
  3005  2135  2160    1
  3006  2879  2904    1
  3007  3251  3276    1
  3008   647   672    1
  3009  2507  2532    1
  3010   667   671   ar
  3011  1411  1415   ar
  3012  3271  3275    1
  3013  2899  2903    1
  3014  2527  2531    1
  3015  1783  1787   ar
  3016  1039  1043   ar
  3017   295   299   ar
  3018  2155  2159   ar
  3019  3247  3280    1
  3020  1387  1420    1
  3021   271   304    1
  3022  1015  1048    1
  3023  2131  2164    1
  3024   643   676    1
  3025  2503  2536    1
  3026  1759  1792    1
  3027  2875  2908    1
  3028  2562  2500    1
  3029  2190  2128    1
  3030  2190  3286   ar
  3031  2934  2872    1
  3032  3306  3244    1
  3033  1818  1756    1
  3034  1818  2914   ar
  3035  1446  1384    1
  3036  1446  2542    1
  3037   330   268    1
  3038   330  1426    1
  3039   702   640    1
  3040   702  1798   ar
  3041  1074  1012    1
  3042  1074  2170   ar
  3043  1044  1040    1
  3044  3276  3272   ar
  3045  2904  2900   ar
  3046   672   668    1
  3047  2160  2156   ar
  3048  1416  1412   ar
  3049  2532  2528   ar
  3050   300   296    1
  3051  1788  1784   ar
  3052  1440  1374    1
  3053  1440  1798   ar
  3054  1068  1002    1
  3055  2928  2862    1
  3056  2928  3286   ar
  3057   324   258    1
  3058   324   682    1
  3059  2184  2118    1
  3060  3300  3234    1
  3061  2556  2490    1
  3062  2556  2914   ar
  3063   696   630    1
  3064   696  1054    1
  3065  1812  1746    1
  3066  1812  2170   ar
  3067  1420  1413    1
  3068  2536  2529    1
  3069  3280  3273   ar
  3070  2908  2901   ar
  3071  2164  2157   ar
  3072  1048  1041   ar
  3073   676   669   ar
  3074   304   297    1
  3075  1792  1785   ar
  3076   682   688    2
  3077  1426  1432    2
  3078  2170  2176    1
  3079  3286  3292    1
  3080  2914  2920    1
  3081  1054  1060    2
  3082   310   316    1
  3083  1798  1804    1
  3084  2542  2548    2
  3085  2911  2925   ar
  3086  2911  2935   ar
  3087  1795  1809   ar
  3088  1795  1819   ar
  3089  1051  1065   ar
  3090  1051  1075   ar
  3091  1423  1437   ar
  3092  1423  1447   ar
  3093   307   321   ar
  3094   307   331   ar
  3095  3283  3297   ar
  3096  3283  3307   ar
  3097  2539  2553   ar
  3098  2539  2563   ar
  3099  2167  2181   ar
  3100  2167  2191   ar
  3101   679   693   ar
  3102   679   703   ar
  3103  2148  2181    1
  3104  2892  2925    1
  3105  1032  1065    1
  3106   660   693    1
  3107  3264  3297    1
  3108  1776  1809    1
  3109  2520  2553    1
  3110  1404  1437    1
  3111   288   321    1
  3112  1382  1447    1
  3113  3242  3307    1
  3114  1754  1819    1
  3115  2870  2935    1
  3116   266   331    1
  3117  2498  2563    1
  3118  1010  1075    1
  3119   638   703    1
  3120  2126  2191    1
  3121  3279  3248    1
  3122  1791  1760    1
  3123  1791  2161   ar
  3124   675   644    1
  3125   675  1045   ar
  3126  2163  2132    1
  3127  2907  2876    1
  3128  2907  3277   ar
  3129  1047  1016    1
  3130  2535  2504    1
  3131  2535  2905   ar
  3132  1419  1388    1
  3133  1419  1789   ar
  3134   303   272    1
  3135   303   673   ar
  3136  2516  2571    1
  3137  2888  2943    1
  3138  3260  3315    1
  3139  1028  1083    1
  3140  1772  1827    1
  3141  1400  1455    1
  3142   284   339    1
  3143   656   711    1
  3144  2144  2199    1
  3145  1437  1448   ar
  3146  3297  3308   ar
  3147  1809  1820   ar
  3148   693   704   ar
  3149  2553  2564   ar
  3150  1065  1076   ar
  3151  2181  2192   ar
  3152  2925  2936   ar
  3153   321   332   ar
  3154  2159  2199    1
  3155  2159  3282   ar
  3156  3275  3315    1
  3157   299   339    1
  3158   299  1422   ar
  3159  2531  2571    1
  3160  2903  2943    1
  3161  1043  1083    1
  3162  1043  2166   ar
  3163  1415  1455    1
  3164  1415  2538   ar
  3165   671   711    1
  3166   671  1794   ar
  3167  1787  1827    1
  3168  1787  2910   ar
  3169  2935  2926   ar
  3170  2563  2554   ar
  3171  1447  1438   ar
  3172   331   322   ar
  3173   703   694   ar
  3174  2191  2182   ar
  3175  1819  1810   ar
  3176  1075  1066   ar
  3177  3307  3298   ar
  3178   668   678    2
  3179   668   664    1
  3180  2156  2166   ar
  3181  2156  2152    1
  3182  2528  2538   ar
  3183  2528  2524    1
  3184  2900  2910   ar
  3185  2900  2896    1
  3186  1412  1422   ar
  3187  1412  1408    1
  3188   296   306    2
  3189   296   292    1
  3190  3272  3282   ar
  3191  3272  3268    1
  3192  1784  1794   ar
  3193  1784  1780    1
  3194  1040  1050    2
  3195  1040  1036    1
  3196  1785  1789   ar
  3197  1785  1781    1
  3198   669   673   ar
  3199   669   665    1
  3200  2157  2161   ar
  3201  2157  2153    1
  3202  1413  1417    2
  3203  1413  1409    1
  3204  2529  2533    2
  3205  2529  2525    1
  3206  1041  1045   ar
  3207  1041  1037    1
  3208   297   301    2
  3209   297   293    1
  3210  3273  3277   ar
  3211  3273  3269    1
  3212  2901  2905   ar
  3213  2901  2897    1
  3214  1804  1846    1
  3215  1804  1851    1
  3216   316   358    1
  3217   316   363    1
  3218  2548  2590    1
  3219  2548  2595    1
  3220  1432  1474    1
  3221  1432  1479    1
  3222  2920  2962    1
  3223  2920  2967    1
  3224  1060  1102    1
  3225  1060  1107    1
  3226   688   730    1
  3227   688   735    1
  3228  2176  2218    1
  3229  2176  2223    1
  3230  3292  3334    1
  3231  3292  3339    1
  3232  1455  1399    1
  3233  2199  2143    1
  3234  2943  2887    1
  3235  3315  3259    1
  3236  1083  1027    1
  3237   711   655    1
  3238   339   283    1
  3239  2571  2515    1
  3240  1827  1771    1
  3241  2590  2487    1
  3242  2218  2115    1
  3243  2962  2859    1
  3244  3334  3231    1
  3245   358   255    1
  3246  1846  1743    1
  3247   730   627    1
  3248  1102   999    1
  3249  1474  1371    1
  3250  1422  1389    1
  3251  2538  2505    1
  3252  2910  2877    1
  3253   306   273    1
  3254   678   645    1
  3255  1794  1761    1
  3256  3282  3249    1
  3257  2166  2133    1
  3258  1050  1017    1
  3259   301   340    1
  3260  1789  1828    1
  3261   673   712    1
  3262  2905  2944    1
  3263  2161  2200    1
  3264  1417  1456    1
  3265  3277  3316    1
  3266  1045  1084    1
  3267  2533  2572    1
  3268   735   623    1
  3269  3339  3227    1
  3270   363   251    1
  3271  2223  2111    1
  3272  1479  1367    1
  3273  1851  1739    1
  3274  1107   995    1
  3275  2595  2483    1
  3276  2967  2855    1
  3277  1086  1036    1
  3278  1086   999    1
  3279  1830  1780    1
  3280  1830  1743    1
  3281  2202  2152    1
  3282  2202  2115    1
  3283  2574  2524    1
  3284  2574  2487    1
  3285  2946  2896    1
  3286  2946  2859    1
  3287  1458  1408    1
  3288  1458  1371    1
  3289   342   292    1
  3290   342   255    1
  3291   714   664    1
  3292   714   627    1
  3293  3318  3268    1
  3294  3318  3231    1
  3295  1448  1383    1
  3296  1448  1424   ar
  3297  1076  1011    1
  3298  1076  1052   ar
  3299  2192  2127    1
  3300  2192  2168   ar
  3301   704   639    1
  3302   704   680   ar
  3303  2564  2499    1
  3304  2564  2540   ar
  3305   332   267    1
  3306   332   308   ar
  3307  3308  3243    1
  3308  3308  3284   ar
  3309  2936  2871    1
  3310  2936  2912   ar
  3311  1820  1755    1
  3312  1820  1796   ar
  3313  1462  1409    1
  3314  1462  1367    1
  3315  2950  2897    1
  3316  2950  2855    1
  3317   718   665    1
  3318   718   623    1
  3319  1834  1781    1
  3320  1834  1739    1
  3321  2578  2525    1
  3322  2578  2483    1
  3323  2206  2153    1
  3324  2206  2111    1
  3325  3322  3269    1
  3326  3322  3227    1
  3327  1090  1037    1
  3328  1090   995    1
  3329   346   293    1
  3330   346   251    1
  3331  1438  1373    1
  3332  1438  1424   ar
  3333  2926  2861    1
  3334  2926  2912   ar
  3335  2182  2117    1
  3336  2182  2168   ar
  3337  2554  2489    1
  3338  2554  2540   ar
  3339   322   257    1
  3340   322   308   ar
  3341  3298  3233    1
  3342  3298  3284   ar
  3343   694   629    1
  3344   694   680   ar
  3345  1810  1745    1
  3346  1810  1796   ar
  3347  1066  1001    1
  3348  1066  1052   ar
  3349   292   348    1
  3350  2896  2952    1
  3351  3268  3324    1
  3352  2524  2580    1
  3353   664   720    1
  3354  1780  1836    1
  3355  1036  1092    1
  3356  1408  1464    1
  3357  2152  2208    1
  3358  2525  2575    1
  3359  1037  1087    1
  3360  1409  1459    1
  3361  2153  2203    1
  3362   293   343    1
  3363  3269  3319    1
  3364  2897  2947    1
  3365   665   715    1
  3366  1781  1831    1
  3367  1796  1775    1
  3368   308   287    1
  3369  1052  1031    1
  3370  2912  2891    1
  3371  1424  1403    1
  3372   680   659    1
  3373  2168  2147    1
  3374  3284  3263    1
  3375  2540  2519    1
  3376  3316  3261    1
  3377  3316  3262    1
  3378  1084  1029    1
  3379  1084  1030    1
  3380  2200  2145    1
  3381  2200  2146    1
  3382  2944  2889    1
  3383  2944  2890    1
  3384  1456  1401    1
  3385  1456  1402    1
  3386   712   657    1
  3387   712   658    1
  3388  2572  2517    1
  3389  2572  2518    1
  3390   340   285    1
  3391   340   286    1
  3392  1828  1773    1
  3393  1828  1774    1
  3394  1371  1486    1
  3395  1371  1466    1
  3396  1371  1468    1
  3397   999  1114    1
  3398   999  1094    1
  3399   999  1096    1
  3400  2487  2602    1
  3401  2487  2582    1
  3402  2487  2584    1
  3403  2859  2974    1
  3404  2859  2954    1
  3405  2859  2956    1
  3406  3231  3346    1
  3407  3231  3326    1
  3408  3231  3328    1
  3409   255   370    1
  3410   255   350    1
  3411   255   352    1
  3412  1743  1858    1
  3413  1743  1838    1
  3414  1743  1840    1
  3415   627   742    1
  3416   627   722    1
  3417   627   724    1
  3418  2115  2230    1
  3419  2115  2210    1
  3420  2115  2212    1
  3421  2483  2587    1
  3422  2483  2585    1
  3423  1739  1843    1
  3424  1739  1841    1
  3425   623   727    1
  3426   623   725    1
  3427  1367  1471    1
  3428  1367  1469    1
  3429  2855  2959    1
  3430  2855  2957    1
  3431   995  1099    1
  3432   995  1097    1
  3433  2111  2215    1
  3434  2111  2213    1
  3435   251   355    1
  3436   251   353    1
  3437  3227  3331    1
  3438  3227  3329    1
  3439  1464  1365    1
  3440  1836  1737    1
  3441  2580  2481    1
  3442  2952  2853    1
  3443  2208  2109    1
  3444   348   249    1
  3445  1092   993    1
  3446   720   621    1
  3447  3324  3225    1
  3448  2203  2114    1
  3449  2947  2858    1
  3450  1087   998    1
  3451   715   626    1
  3452  1459  1370    1
  3453  3319  3230    1
  3454  2575  2486    1
  3455   343   254    1
  3456  1831  1742    1
  3457   653   710    1
  3458  1397  1454    1
  3459  1025  1082    1
  3460  2141  2198    1
  3461  1769  1826    1
  3462   281   338    1
  3463  2885  2942    1
  3464  3257  3314    1
  3465  2513  2570    1
  3466  1486  1396    1
  3467   742   652    1
  3468  1114  1024    1
  3469  2602  2512    1
  3470  2974  2884    1
  3471  1858  1768    1
  3472   370   280    1
  3473  2230  2140    1
  3474  3346  3256    1
  3475  1094   993    1
  3476  2954  2853    1
  3477   722   621    1
  3478  1466  1365    1
  3479  1838  1737    1
  3480   350   249    1
  3481  2582  2481    1
  3482  3326  3225    1
  3483  2210  2109    1
  3484  2959  2858    1
  3485   727   626    1
  3486  2587  2486    1
  3487  1099   998    1
  3488  1843  1742    1
  3489   355   254    1
  3490  1471  1370    1
  3491  3331  3230    1
  3492  2215  2114    1
  3493  2886  2942    1
  3494   282   338    1
  3495  2142  2198    1
  3496  3258  3314    1
  3497   654   710    1
  3498  2514  2570    1
  3499  1026  1082    1
  3500  1398  1454    1
  3501  1770  1826    1
  3502   338   333    1
  3503   710   705    1
  3504  1454  1449    1
  3505  1082  1077    1
  3506  1826  1821    1
  3507  2942  2937    1
  3508  3314  3309    1
  3509  2198  2193    1
  3510  2570  2565    1
  3511   352   249    1
  3512  2212  2109    1
  3513  2956  2853    1
  3514  3328  3225    1
  3515  1096   993    1
  3516  1468  1365    1
  3517  1840  1737    1
  3518   724   621    1
  3519  2584  2481    1
  3520  2957  2858    1
  3521   725   626    1
  3522   353   254    1
  3523  1097   998    1
  3524  1469  1370    1
  3525  2213  2114    1
  3526  3329  3230    1
  3527  2585  2486    1
  3528  1841  1742    1
  3529  3238  3304    1
  3530  1006  1072    1
  3531  2866  2932    1
  3532  2122  2188    1
  3533  1750  1816    1
  3534   262   328    1
  3535   634   700    1
  3536  1378  1444    1
  3537  2494  2560    1
  3538  1380  1451    1
  3539  1752  1823    1
  3540  2868  2939    1
  3541   264   335    1
  3542  2496  2567    1
  3543  1008  1079    1
  3544   636   707    1
  3545  3240  3311    1
  3546  2124  2195    1
  3547   260   326    1
  3548  2120  2186    1
  3549   632   698    1
  3550  3236  3302    1
  3551  1748  1814    1
  3552  1004  1070    1
  3553  2864  2930    1
  3554  1376  1442    1
  3555  2492  2558    1
  3556  2853  2970    1
  3557  2853  2972    1
  3558  2853  2976    1
  3559  1737  1854    1
  3560  1737  1856    1
  3561  1737  1860    1
  3562   249   366    1
  3563   249   368    1
  3564   249   372    1
  3565   993  1110    1
  3566   993  1112    1
  3567   993  1116    1
  3568  3225  3342    1
  3569  3225  3344    1
  3570  3225  3348    1
  3571  1365  1482    1
  3572  1365  1484    1
  3573  1365  1488    1
  3574  2481  2598    1
  3575  2481  2600    1
  3576  2481  2604    1
  3577  2109  2226    1
  3578  2109  2228    1
  3579  2109  2232    1
  3580   621   738    1
  3581   621   740    1
  3582   621   744    1
  3583  1370  1477    1
  3584  1370  1475    1
  3585  2486  2593    1
  3586  2486  2591    1
  3587  2114  2221    1
  3588  2114  2219    1
  3589  3230  3337    1
  3590  3230  3335    1
  3591  2858  2965    1
  3592  2858  2963    1
  3593   998  1105    1
  3594   998  1103    1
  3595   254   361    1
  3596   254   359    1
  3597  1742  1849    1
  3598  1742  1847    1
  3599   626   733    1
  3600   626   731    1
  3601   705  1816    2
  3602   705   685    1
  3603  2937  2917    1
  3604   333  1444    2
  3605   333   313    1
  3606  2565  2545    1
  3607  1449  2560    2
  3608  1449  1429    1
  3609  1821  2932    2
  3610  1821  1801    1
  3611  3309  3289    1
  3612  1077  2188    2
  3613  1077  1057    1
  3614  2193  3304    2
  3615  2193  2173    1
  3616  2560  2546    1
  3617   700   686    1
  3618  3304  3290    1
  3619  1444  1430    1
  3620  2188  2174    1
  3621  2932  2918    1
  3622   328   314    1
  3623  1816  1802    1
  3624  1072  1058    1
  3625  2195  1814    2
  3626  2939  2558    2
  3627   707   326    2
  3628  1823  1442    2
  3629  1079   698    2
  3630  3311  2930    2
  3631  2970  2924    1
  3632  1854  1808    1
  3633   738   692    1
  3634  2598  2552    1
  3635  3342  3296    1
  3636  2226  2180    1
  3637  1110  1064    1
  3638  1482  1436    1
  3639   366   320    1
  3640  2221  2179    1
  3641  3337  3295    1
  3642  2593  2551    1
  3643   361   319    1
  3644  1105  1063    1
  3645  1849  1807    1
  3646  1477  1435    1
  3647  2965  2923    1
  3648   733   691    1
  3649   359   317    1
  3650  2963  2921    1
  3651  1847  1805    1
  3652  1103  1061    1
  3653   731   689    1
  3654  2591  2549    1
  3655  1475  1433    1
  3656  3335  3293    1
  3657  2219  2177    1
  3658  3245  3348    1
  3659  2129  2232    1
  3660   641   744    1
  3661  2501  2604    1
  3662   269   372    1
  3663  2873  2976    1
  3664  1757  1860    1
  3665  1385  1488    1
  3666  1013  1116    1
  3667   313   319    2
  3668  2545  2551    2
  3669  1801  1807    2
  3670   685   691    2
  3671  2917  2923    2
  3672  3289  3295    2
  3673  2173  2179    2
  3674  1057  1063    2
  3675  1429  1435    2
  3676  2918  2924    2
  3677  2546  2552    2
  3678   314   320    2
  3679  1802  1808    2
  3680   686   692    2
  3681  1430  1436    2
  3682  1058  1064    2
  3683  3290  3296    2
  3684  2174  2180    2
