@<TRIPOS>MOLECULE
Lattice="32.018782 0.0 0.0 -14.043870532898428 28.753623292648026 0.0 -8.625062807759862 -14.478403582935226 26.22054754850901" Properties=species:S:1:pos:R:3 i=52 E=-1376.2793533296 pbc="T T T"
 200 200 0 0 0
SMALL
GASTEIGER

@<TRIPOS>ATOM
      1 N           2.6246    3.1507   12.4626 N.pl3   1  UNL1       -0.3135
      2 N           1.3460    4.2837   13.8208 N.pl3   1  UNL1       -0.3166
      3 C           2.2903    3.3256   13.7540 C.3     1  UNL1        0.1250
      4 C           1.0691    4.7259   12.5400 C.2     1  UNL1        0.0072
      5 C           0.6835    4.7395   15.0474 C.3     1  UNL1        0.0020
      6 H           2.7076    2.7868   14.5961 H       1  UNL1        0.0746
      7 H           0.3193    5.4848   12.3520 H       1  UNL1        0.0793
      8 H           0.1898    5.6932   14.8461 H       1  UNL1        0.0428
      9 H          -0.0649    3.9983   15.3533 H       1  UNL1        0.0428
     10 H           1.4303    4.8693   15.8360 H       1  UNL1        0.0428
     11 C           1.8760    4.0205   11.6882 C.2     1  UNL1        0.0074
     12 C           5.7302    3.6711   12.2463 C.3     1  UNL1       -0.0545
     13 H           3.9624    1.6080   12.8237 H       1  UNL1        0.0464
     14 H           5.1645    4.4726   12.7432 H       1  UNL1        0.0263
     15 H           6.0740    2.9950   13.0434 H       1  UNL1        0.0263
     16 C           6.9460    4.2648   11.5187 C.3     1  UNL1       -0.0652
     17 H           6.6351    4.9599   10.7254 H       1  UNL1        0.0230
     18 H           7.5515    3.4673   11.0636 H       1  UNL1        0.0230
     19 H           7.5999    4.8204   12.2046 H       1  UNL1        0.0230
     20 C           3.6368    2.1968   11.9581 C.3     1  UNL1        0.0135
     21 C           4.8195    2.8945   11.2876 C.3     1  UNL1       -0.0374
     22 H           3.1285    1.5097   11.2677 H       1  UNL1        0.0464
     23 H           5.4003    2.1052   10.7866 H       1  UNL1        0.0280
     24 H           4.4515    3.5499   10.4849 H       1  UNL1        0.0280
     25 H           1.9718    4.0543   10.6109 H       1  UNL1        0.0793
     26 N          -1.6880   -4.0885   25.5729 N.pl3   2  UNL2       -0.3135
     27 N          -2.9665   -2.9555   26.9311 N.pl3   2  UNL2       -0.3166
     28 C          -2.0222   -3.9136   26.8643 C.3     2  UNL2        0.1250
     29 C          -3.2435   -2.5133   25.6503 C.2     2  UNL2        0.0072
     30 C          -3.6290   -2.4997   28.1577 C.3     2  UNL2        0.0020
     31 H          -1.6049   -4.4524   27.7064 H       2  UNL2        0.0746
     32 H          -3.9932   -1.7544   25.4623 H       2  UNL2        0.0793
     33 H          -4.1227   -1.5460   27.9563 H       2  UNL2        0.0428
     34 H          -4.3775   -3.2409   28.4636 H       2  UNL2        0.0428
     35 H          -2.8822   -2.3699   28.9463 H       2  UNL2        0.0428
     36 C          -2.4366   -3.2187   24.7985 C.2     2  UNL2        0.0074
     37 C           1.4177   -3.5681   25.3566 C.3     2  UNL2       -0.0545
     38 H          -0.3501   -5.6312   25.9340 H       2  UNL2        0.0464
     39 H           0.8519   -2.7666   25.8534 H       2  UNL2        0.0263
     40 H           1.7615   -4.2442   26.1537 H       2  UNL2        0.0263
     41 C           2.6335   -2.9744   24.6290 C.3     2  UNL2       -0.0652
     42 H           2.3226   -2.2793   23.8357 H       2  UNL2        0.0230
     43 H           3.2390   -3.7719   24.1739 H       2  UNL2        0.0230
     44 H           3.2873   -2.4188   25.3149 H       2  UNL2        0.0230
     45 C          -0.6757   -5.0424   25.0683 C.3     2  UNL2        0.0135
     46 C           0.5069   -4.3447   24.3979 C.3     2  UNL2       -0.0374
     47 H          -1.1841   -5.7295   24.3780 H       2  UNL2        0.0464
     48 H           1.0878   -5.1340   23.8968 H       2  UNL2        0.0280
     49 H           0.1389   -3.6893   23.5951 H       2  UNL2        0.0280
     50 H          -2.3408   -3.1849   23.7212 H       2  UNL2        0.0793
     51 N          -4.3974   17.5275   12.4626 N.pl3   3  UNL3       -0.3135
     52 N          -5.6759   18.6605   13.8208 N.pl3   3  UNL3       -0.3166
     53 C          -4.7316   17.7024   13.7540 C.3     3  UNL3        0.1250
     54 C          -5.9529   19.1027   12.5400 C.2     3  UNL3        0.0072
     55 C          -6.3384   19.1163   15.0474 C.3     3  UNL3        0.0020
     56 H          -4.3143   17.1636   14.5961 H       3  UNL3        0.0746
     57 H          -6.7026   19.8616   12.3520 H       3  UNL3        0.0793
     58 H          -6.8321   20.0701   14.8461 H       3  UNL3        0.0428
     59 H          -7.0869   18.3751   15.3533 H       3  UNL3        0.0428
     60 H          -5.5916   19.2461   15.8360 H       3  UNL3        0.0428
     61 C          -5.1460   18.3973   11.6882 C.2     3  UNL3        0.0074
     62 C          -1.2917   18.0479   12.2463 C.3     3  UNL3       -0.0545
     63 H          -3.0595   15.9848   12.8237 H       3  UNL3        0.0464
     64 H          -1.8575   18.8494   12.7432 H       3  UNL3        0.0263
     65 H          -0.9479   17.3718   13.0434 H       3  UNL3        0.0263
     66 C          -0.0760   18.6417   11.5187 C.3     3  UNL3       -0.0652
     67 H          -0.3868   19.3368   10.7254 H       3  UNL3        0.0230
     68 H           0.5296   17.8441   11.0636 H       3  UNL3        0.0230
     69 H           0.5779   19.1972   12.2046 H       3  UNL3        0.0230
     70 C          -3.3852   16.5737   11.9581 C.3     3  UNL3        0.0135
     71 C          -2.2025   17.2713   11.2876 C.3     3  UNL3       -0.0374
     72 H          -3.8935   15.8865   11.2677 H       3  UNL3        0.0464
     73 H          -1.6216   16.4820   10.7866 H       3  UNL3        0.0280
     74 H          -2.5705   17.9268   10.4849 H       3  UNL3        0.0280
     75 H          -5.0502   18.4311   10.6109 H       3  UNL3        0.0793
     76 N          -8.7099   10.2883   25.5729 N.pl3   4  UNL4       -0.3135
     77 N          -9.9885   11.4213   26.9311 N.pl3   4  UNL4       -0.3166
     78 C          -9.0442   10.4632   26.8643 C.3     4  UNL4        0.1250
     79 C         -10.2654   11.8635   25.6503 C.2     4  UNL4        0.0072
     80 C         -10.6509   11.8771   28.1577 C.3     4  UNL4        0.0020
     81 H          -8.6268    9.9244   27.7064 H       4  UNL4        0.0746
     82 H         -11.0151   12.6224   25.4623 H       4  UNL4        0.0793
     83 H         -11.1446   12.8308   27.9563 H       4  UNL4        0.0428
     84 H         -11.3994   11.1359   28.4636 H       4  UNL4        0.0428
     85 H          -9.9041   12.0069   28.9463 H       4  UNL4        0.0428
     86 C          -9.4585   11.1581   24.7985 C.2     4  UNL4        0.0074
     87 C          -5.6042   10.8087   25.3566 C.3     4  UNL4       -0.0545
     88 H          -7.3720    8.7456   25.9340 H       4  UNL4        0.0464
     89 H          -6.1700   11.6102   25.8534 H       4  UNL4        0.0263
     90 H          -5.2605   10.1326   26.1537 H       4  UNL4        0.0263
     91 C          -4.3885   11.4025   24.6290 C.3     4  UNL4       -0.0652
     92 H          -4.6993   12.0976   23.8357 H       4  UNL4        0.0230
     93 H          -3.7830   10.6049   24.1739 H       4  UNL4        0.0230
     94 H          -3.7346   11.9580   25.3149 H       4  UNL4        0.0230
     95 C          -7.6977    9.3345   25.0683 C.3     4  UNL4        0.0135
     96 C          -6.5150   10.0321   24.3979 C.3     4  UNL4       -0.0374
     97 H          -8.2060    8.6473   24.3780 H       4  UNL4        0.0464
     98 H          -5.9342    9.2428   23.8968 H       4  UNL4        0.0280
     99 H          -6.8830   10.6876   23.5951 H       4  UNL4        0.0280
    100 H          -9.3627   11.1919   23.7212 H       4  UNL4        0.0793
    101 N          18.6340    3.1507   12.4626 N.pl3   5  UNL5       -0.3135
    102 N          17.3554    4.2837   13.8208 N.pl3   5  UNL5       -0.3166
    103 C          18.2997    3.3256   13.7540 C.3     5  UNL5        0.1250
    104 C          17.0784    4.7259   12.5400 C.2     5  UNL5        0.0072
    105 C          16.6929    4.7395   15.0474 C.3     5  UNL5        0.0020
    106 H          18.7170    2.7868   14.5961 H       5  UNL5        0.0746
    107 H          16.3287    5.4848   12.3520 H       5  UNL5        0.0793
    108 H          16.1992    5.6932   14.8461 H       5  UNL5        0.0428
    109 H          15.9444    3.9983   15.3533 H       5  UNL5        0.0428
    110 H          17.4397    4.8693   15.8360 H       5  UNL5        0.0428
    111 C          17.8854    4.0205   11.6882 C.2     5  UNL5        0.0074
    112 C          21.7396    3.6711   12.2463 C.3     5  UNL5       -0.0545
    113 H          19.9718    1.6080   12.8237 H       5  UNL5        0.0464
    114 H          21.1739    4.4726   12.7432 H       5  UNL5        0.0263
    115 H          22.0834    2.9950   13.0434 H       5  UNL5        0.0263
    116 C          22.9554    4.2648   11.5187 C.3     5  UNL5       -0.0652
    117 H          22.6445    4.9599   10.7254 H       5  UNL5        0.0230
    118 H          23.5609    3.4673   11.0636 H       5  UNL5        0.0230
    119 H          23.6093    4.8204   12.2046 H       5  UNL5        0.0230
    120 C          19.6462    2.1968   11.9581 C.3     5  UNL5        0.0135
    121 C          20.8289    2.8945   11.2876 C.3     5  UNL5       -0.0374
    122 H          19.1379    1.5097   11.2677 H       5  UNL5        0.0464
    123 H          21.4097    2.1052   10.7866 H       5  UNL5        0.0280
    124 H          20.4609    3.5499   10.4849 H       5  UNL5        0.0280
    125 H          17.9811    4.0543   10.6109 H       5  UNL5        0.0793
    126 N          14.3214   -4.0885   25.5729 N.pl3   6  UNL6       -0.3135
    127 N          13.0429   -2.9555   26.9311 N.pl3   6  UNL6       -0.3166
    128 C          13.9872   -3.9136   26.8643 C.3     6  UNL6        0.1250
    129 C          12.7659   -2.5133   25.6503 C.2     6  UNL6        0.0072
    130 C          12.3804   -2.4997   28.1577 C.3     6  UNL6        0.0020
    131 H          14.4045   -4.4524   27.7064 H       6  UNL6        0.0746
    132 H          12.0162   -1.7544   25.4623 H       6  UNL6        0.0793
    133 H          11.8867   -1.5460   27.9563 H       6  UNL6        0.0428
    134 H          11.6319   -3.2409   28.4636 H       6  UNL6        0.0428
    135 H          13.1272   -2.3699   28.9463 H       6  UNL6        0.0428
    136 C          13.5728   -3.2187   24.7985 C.2     6  UNL6        0.0074
    137 C          17.4271   -3.5681   25.3566 C.3     6  UNL6       -0.0545
    138 H          15.6593   -5.6312   25.9340 H       6  UNL6        0.0464
    139 H          16.8613   -2.7666   25.8534 H       6  UNL6        0.0263
    140 H          17.7709   -4.2442   26.1537 H       6  UNL6        0.0263
    141 C          18.6428   -2.9744   24.6290 C.3     6  UNL6       -0.0652
    142 H          18.3320   -2.2793   23.8357 H       6  UNL6        0.0230
    143 H          19.2483   -3.7719   24.1739 H       6  UNL6        0.0230
    144 H          19.2967   -2.4188   25.3149 H       6  UNL6        0.0230
    145 C          15.3336   -5.0424   25.0683 C.3     6  UNL6        0.0135
    146 C          16.5163   -4.3447   24.3979 C.3     6  UNL6       -0.0374
    147 H          14.8253   -5.7295   24.3780 H       6  UNL6        0.0464
    148 H          17.0972   -5.1340   23.8968 H       6  UNL6        0.0280
    149 H          16.1483   -3.6893   23.5951 H       6  UNL6        0.0280
    150 H          13.6686   -3.1849   23.7212 H       6  UNL6        0.0793
    151 N          11.6120   17.5275   12.4626 N.pl3   7  UNL7       -0.3135
    152 N          10.3335   18.6605   13.8208 N.pl3   7  UNL7       -0.3166
    153 C          11.2778   17.7024   13.7540 C.3     7  UNL7        0.1250
    154 C          10.0565   19.1027   12.5400 C.2     7  UNL7        0.0072
    155 C           9.6710   19.1163   15.0474 C.3     7  UNL7        0.0020
    156 H          11.6951   17.1636   14.5961 H       7  UNL7        0.0746
    157 H           9.3068   19.8616   12.3520 H       7  UNL7        0.0793
    158 H           9.1773   20.0701   14.8461 H       7  UNL7        0.0428
    159 H           8.9225   18.3751   15.3533 H       7  UNL7        0.0428
    160 H          10.4178   19.2461   15.8360 H       7  UNL7        0.0428
    161 C          10.8634   18.3973   11.6882 C.2     7  UNL7        0.0074
    162 C          14.7177   18.0479   12.2463 C.3     7  UNL7       -0.0545
    163 H          12.9499   15.9848   12.8237 H       7  UNL7        0.0464
    164 H          14.1519   18.8494   12.7432 H       7  UNL7        0.0263
    165 H          15.0615   17.3718   13.0434 H       7  UNL7        0.0263
    166 C          15.9334   18.6417   11.5187 C.3     7  UNL7       -0.0652
    167 H          15.6226   19.3368   10.7254 H       7  UNL7        0.0230
    168 H          16.5389   17.8441   11.0636 H       7  UNL7        0.0230
    169 H          16.5873   19.1972   12.2046 H       7  UNL7        0.0230
    170 C          12.6242   16.5737   11.9581 C.3     7  UNL7        0.0135
    171 C          13.8069   17.2713   11.2876 C.3     7  UNL7       -0.0374
    172 H          12.1159   15.8865   11.2677 H       7  UNL7        0.0464
    173 H          14.3878   16.4820   10.7866 H       7  UNL7        0.0280
    174 H          13.4389   17.9268   10.4849 H       7  UNL7        0.0280
    175 H          10.9592   18.4311   10.6109 H       7  UNL7        0.0793
    176 N           7.2995   10.2883   25.5729 N.pl3   8  UNL8       -0.3135
    177 N           6.0209   11.4213   26.9311 N.pl3   8  UNL8       -0.3166
    178 C           6.9652   10.4632   26.8643 C.3     8  UNL8        0.1250
    179 C           5.7440   11.8635   25.6503 C.2     8  UNL8        0.0072
    180 C           5.3585   11.8771   28.1577 C.3     8  UNL8        0.0020
    181 H           7.3826    9.9244   27.7064 H       8  UNL8        0.0746
    182 H           4.9942   12.6224   25.4623 H       8  UNL8        0.0793
    183 H           4.8648   12.8308   27.9563 H       8  UNL8        0.0428
    184 H           4.6100   11.1359   28.4636 H       8  UNL8        0.0428
    185 H           6.1052   12.0069   28.9463 H       8  UNL8        0.0428
    186 C           6.5509   11.1581   24.7985 C.2     8  UNL8        0.0074
    187 C          10.4052   10.8087   25.3566 C.3     8  UNL8       -0.0545
    188 H           8.6374    8.7456   25.9340 H       8  UNL8        0.0464
    189 H           9.8394   11.6102   25.8534 H       8  UNL8        0.0263
    190 H          10.7489   10.1326   26.1537 H       8  UNL8        0.0263
    191 C          11.6209   11.4025   24.6290 C.3     8  UNL8       -0.0652
    192 H          11.3101   12.0976   23.8357 H       8  UNL8        0.0230
    193 H          12.2264   10.6049   24.1739 H       8  UNL8        0.0230
    194 H          12.2748   11.9580   25.3149 H       8  UNL8        0.0230
    195 C           8.3117    9.3345   25.0683 C.3     8  UNL8        0.0135
    196 C           9.4944   10.0321   24.3979 C.3     8  UNL8       -0.0374
    197 H           7.8034    8.6473   24.3780 H       8  UNL8        0.0464
    198 H          10.0752    9.2428   23.8968 H       8  UNL8        0.0280
    199 H           9.1264   10.6876   23.5951 H       8  UNL8        0.0280
    200 H           6.6467   11.1919   23.7212 H       8  UNL8        0.0793
@<TRIPOS>BOND
     1   124   121    1
     2    74    71    1
     3   174   171    1
     4    24    21    1
     5    75    61    1
     6   175   161    1
     7   125   111    1
     8    25    11    1
     9    67    66    1
    10    17    16    1
    11   167   166    1
    12   117   116    1
    13   123   121    1
    14    23    21    1
    15    73    71    1
    16   173   171    1
    17   168   166    1
    18    68    66    1
    19   118   116    1
    20    18    16    1
    21    22    20    1
    22    72    70    1
    23   122   120    1
    24   172   170    1
    25    21    20    1
    26    21    12    1
    27    71    70    1
    28    71    62    1
    29   121   120    1
    30   121   112    1
    31   171   170    1
    32   171   162    1
    33   116   119    1
    34   116   112    1
    35    66    69    1
    36    66    62    1
    37   166   169    1
    38   166   162    1
    39    16    19    1
    40    16    12    1
    41    11     1    1
    42    11     4    2
    43   161   151    1
    44   161   154    2
    45    61    51    1
    46    61    54    2
    47   111   101    1
    48   111   104    2
    49   120   101    1
    50   120   113    1
    51   170   151    1
    52   170   163    1
    53    70    51    1
    54    70    63    1
    55    20     1    1
    56    20    13    1
    57    62    64    1
    58    62    65    1
    59   162   164    1
    60   162   165    1
    61    12    14    1
    62    12    15    1
    63   112   114    1
    64   112   115    1
    65   107   104    1
    66    57    54    1
    67   157   154    1
    68     7     4    1
    69   101   103    1
    70   151   153    1
    71     1     3    1
    72    51    53    1
    73   154   152    1
    74   104   102    1
    75     4     2    1
    76    54    52    1
    77   153   152    1
    78   153   156    1
    79    53    52    1
    80    53    56    1
    81     3     2    1
    82     3     6    1
    83   103   102    1
    84   103   106    1
    85   152   155    1
    86   102   105    1
    87     2     5    1
    88    52    55    1
    89    58    55    1
    90   108   105    1
    91   158   155    1
    92     8     5    1
    93     5     9    1
    94     5    10    1
    95    55    59    1
    96    55    60    1
    97   105   109    1
    98   105   110    1
    99   155   159    1
   100   155   160    1
   101   199   196    1
   102    99    96    1
   103   149   146    1
   104    49    46    1
   105    50    36    1
   106   200   186    1
   107   100    86    1
   108   150   136    1
   109   142   141    1
   110   192   191    1
   111    92    91    1
   112    42    41    1
   113    98    96    1
   114   198   196    1
   115    48    46    1
   116   148   146    1
   117    93    91    1
   118   193   191    1
   119   143   141    1
   120    43    41    1
   121    47    45    1
   122   147   145    1
   123   197   195    1
   124    97    95    1
   125    46    45    1
   126    46    37    1
   127   146   145    1
   128   146   137    1
   129   196   195    1
   130   196   187    1
   131    96    95    1
   132    96    87    1
   133    41    44    1
   134    41    37    1
   135   141   144    1
   136   141   137    1
   137    91    94    1
   138    91    87    1
   139   191   194    1
   140   191   187    1
   141    86    76    1
   142    86    79    2
   143   136   126    1
   144   136   129    2
   145    36    26    1
   146    36    29    2
   147   186   176    1
   148   186   179    2
   149   195   176    1
   150   195   188    1
   151    45    26    1
   152    45    38    1
   153    95    76    1
   154    95    88    1
   155   145   126    1
   156   145   138    1
   157    37    39    1
   158    37    40    1
   159   137   139    1
   160   137   140    1
   161   187   189    1
   162   187   190    1
   163    87    89    1
   164    87    90    1
   165    32    29    1
   166    82    79    1
   167   132   129    1
   168   182   179    1
   169    26    28    1
   170    76    78    1
   171   176   178    1
   172   126   128    1
   173   179   177    1
   174    29    27    1
   175   129   127    1
   176    79    77    1
   177    28    27    1
   178    28    31    1
   179    78    77    1
   180    78    81    1
   181   178   177    1
   182   178   181    1
   183   128   127    1
   184   128   131    1
   185    27    30    1
   186    77    80    1
   187   177   180    1
   188   127   130    1
   189    83    80    1
   190    33    30    1
   191   183   180    1
   192   133   130    1
   193   180   184    1
   194   180   185    1
   195    30    34    1
   196    30    35    1
   197   130   134    1
   198   130   135    1
   199    80    84    1
   200    80    85    1
