@<TRIPOS>MOLECULE
Lattice="32.018782 0.0 0.0 -14.043870532898428 28.753623292648026 0.0 -8.625062807759862 -14.478403582935226 26.22054754850901" Properties=species:S:1:pos:R:3 i=66 E=-1627.5628275678 pbc="T T T"
 320 312 0 0 0
SMALL
GASTEIGER

@<TRIPOS>ATOM
      1 N           2.6257    3.1217   12.4479 N.pl3   1  UNL1       -0.3135
      2 N           1.3202    4.2220   13.8072 N.pl3   1  UNL1       -0.3166
      3 C           2.2709    3.2707   13.7368 C.3     1  UNL1        0.1250
      4 C           1.0589    4.6854   12.5310 C.2     1  UNL1        0.0072
      5 C           0.6492    4.6628   15.0345 C.3     1  UNL1        0.0020
      6 H           2.6778    2.7172   14.5743 H       1  UNL1        0.0746
      7 H           0.3064    5.4425   12.3468 H       1  UNL1        0.0793
      8 H           0.1271    5.6006   14.8309 H       1  UNL1        0.0428
      9 H          -0.0758    3.9010   15.3474 H       1  UNL1        0.0428
     10 H           1.3961    4.8199   15.8180 H       1  UNL1        0.0428
     11 C           1.8826    4.0005   11.6786 C.2     1  UNL1        0.0074
     12 C           5.7056    3.7222   12.2612 C.3     1  UNL1       -0.0545
     13 H           3.9873    1.6000   12.8083 H       1  UNL1        0.0464
     14 H           5.1074    4.5074   12.7457 H       1  UNL1        0.0263
     15 H           6.0572    3.0584   13.0653 H       1  UNL1        0.0263
     16 C           6.9134    4.3551   11.5532 C.3     1  UNL1       -0.0652
     17 H           6.5938    5.0228   10.7402 H       1  UNL1        0.0230
     18 H           7.5653    3.5770   11.1298 H       1  UNL1        0.0230
     19 H           7.5218    4.9557   12.2434 H       1  UNL1        0.0230
     20 C           3.6582    2.1890   11.9443 C.3     1  UNL1        0.0135
     21 C           4.8343    2.9145   11.2910 C.3     1  UNL1       -0.0374
     22 H           3.1680    1.4961   11.2464 H       1  UNL1        0.0464
     23 H           5.4436    2.1369   10.8052 H       1  UNL1        0.0280
     24 H           4.4634    3.5559   10.4783 H       1  UNL1        0.0280
     25 H           1.9920    4.0527   10.6035 H       1  UNL1        0.0793
     26 F           3.6634    9.9198   12.8980 F       2  UNL2       -0.1492
     27 F           6.8598    8.3749   12.6466 F       2  UNL2       -0.1492
     28 F           4.8422   10.7066   11.2126 F       2  UNL2       -0.1492
     29 F           3.1115   11.8313   11.9656 F       2  UNL2       -0.1492
     30 O           4.3952   11.9776   14.7703 O.2     2  UNL2       -0.1468
     31 C           4.1687   11.0533   12.3369 C.3     2  UNL2        0.5387
     32 F           8.0232    8.6731   14.4953 F       2  UNL2       -0.1492
     33 C           7.9443    9.0073   13.1807 C.3     2  UNL2        0.5387
     34 F           9.0532    8.5374   12.5496 F       2  UNL2       -0.1492
     35 S           5.2368   11.9648   13.5883 S.O2    2  UNL2        0.1638
     36 S           7.7983   10.8628   12.9400 S.O2    2  UNL2        0.1638
     37 O           5.5590   13.2146   12.9013 O.2     2  UNL2       -0.1468
     38 O           8.9908   11.4278   13.5860 O.2     2  UNL2       -0.1468
     39 O           7.6473   11.0648   11.5045 O.2     2  UNL2       -0.1468
     40 N           6.4972   11.0264   13.8652 N.3     2  UNL2        0.0775
     41 N          -1.6868   -4.1176   25.5581 N.pl3   3  UNL3       -0.3135
     42 N          -2.9923   -3.0172   26.9174 N.pl3   3  UNL3       -0.3166
     43 C          -2.0416   -3.9685   26.8471 C.3     3  UNL3        0.1250
     44 C          -3.2536   -2.5538   25.6412 C.2     3  UNL3        0.0072
     45 C          -3.6633   -2.5764   28.1448 C.3     3  UNL3        0.0020
     46 H          -1.6348   -4.5220   27.6846 H       3  UNL3        0.0746
     47 H          -4.0062   -1.7967   25.4571 H       3  UNL3        0.0793
     48 H          -4.1854   -1.6386   27.9412 H       3  UNL3        0.0428
     49 H          -4.3883   -3.3382   28.4576 H       3  UNL3        0.0428
     50 H          -2.9165   -2.4193   28.9282 H       3  UNL3        0.0428
     51 C          -2.4300   -3.2387   24.7888 C.2     3  UNL3        0.0074
     52 C           1.3931   -3.5170   25.3715 C.3     3  UNL3       -0.0545
     53 H          -0.3252   -5.6392   25.9186 H       3  UNL3        0.0464
     54 H           0.7949   -2.7318   25.8560 H       3  UNL3        0.0263
     55 H           1.7447   -4.1808   26.1756 H       3  UNL3        0.0263
     56 C           2.6009   -2.8841   24.6635 C.3     3  UNL3       -0.0652
     57 H           2.2813   -2.2164   23.8505 H       3  UNL3        0.0230
     58 H           3.2528   -3.6622   24.2401 H       3  UNL3        0.0230
     59 H           3.2093   -2.2836   25.3537 H       3  UNL3        0.0230
     60 C          -0.6544   -5.0502   25.0545 C.3     3  UNL3        0.0135
     61 C           0.5217   -4.3247   24.4013 C.3     3  UNL3       -0.0374
     62 H          -1.1446   -5.7431   24.3567 H       3  UNL3        0.0464
     63 H           1.1310   -5.1023   23.9155 H       3  UNL3        0.0280
     64 H           0.1508   -3.6833   23.5886 H       3  UNL3        0.0280
     65 H          -2.3205   -3.1865   23.7138 H       3  UNL3        0.0793
     66 F          -0.6491    2.6806   26.0082 F       4  UNL4       -0.1492
     67 F           2.5472    1.1357   25.7568 F       4  UNL4       -0.1492
     68 F           0.5297    3.4674   24.3228 F       4  UNL4       -0.1492
     69 F          -1.2010    4.5921   25.0758 F       4  UNL4       -0.1492
     70 O           0.0827    4.7384   27.8806 O.2     4  UNL4       -0.1468
     71 C          -0.1439    3.8141   25.4471 C.3     4  UNL4        0.5387
     72 F           3.7107    1.4339   27.6056 F       4  UNL4       -0.1492
     73 C           3.6318    1.7681   26.2909 C.3     4  UNL4        0.5387
     74 F           4.7407    1.2982   25.6598 F       4  UNL4       -0.1492
     75 S           0.9243    4.7256   26.6986 S.O2    4  UNL4        0.1638
     76 S           3.4857    3.6236   26.0503 S.O2    4  UNL4        0.1638
     77 O           1.2465    5.9754   26.0115 O.2     4  UNL4       -0.1468
     78 O           4.6783    4.1886   26.6963 O.2     4  UNL4       -0.1468
     79 O           3.3347    3.8256   24.6148 O.2     4  UNL4       -0.1468
     80 N           2.1846    3.7872   26.9754 N.3     4  UNL4        0.0775
     81 N          -4.3962   17.4985   12.4479 N.pl3   5  UNL5       -0.3135
     82 N          -5.7017   18.5988   13.8072 N.pl3   5  UNL5       -0.3166
     83 C          -4.7510   17.6475   13.7368 C.3     5  UNL5        0.1250
     84 C          -5.9630   19.0622   12.5310 C.2     5  UNL5        0.0072
     85 C          -6.3727   19.0396   15.0345 C.3     5  UNL5        0.0020
     86 H          -4.3442   17.0940   14.5743 H       5  UNL5        0.0746
     87 H          -6.7156   19.8193   12.3468 H       5  UNL5        0.0793
     88 H          -6.8948   19.9774   14.8309 H       5  UNL5        0.0428
     89 H          -7.0977   18.2778   15.3474 H       5  UNL5        0.0428
     90 H          -5.6259   19.1967   15.8180 H       5  UNL5        0.0428
     91 C          -5.1394   18.3773   11.6786 C.2     5  UNL5        0.0074
     92 C          -1.3163   18.0990   12.2612 C.3     5  UNL5       -0.0545
     93 H          -3.0346   15.9768   12.8083 H       5  UNL5        0.0464
     94 H          -1.9145   18.8842   12.7457 H       5  UNL5        0.0263
     95 H          -0.9647   17.4352   13.0653 H       5  UNL5        0.0263
     96 C          -0.1085   18.7319   11.5532 C.3     5  UNL5       -0.0652
     97 H          -0.4281   19.3996   10.7402 H       5  UNL5        0.0230
     98 H           0.5434   17.9538   11.1298 H       5  UNL5        0.0230
     99 H           0.4999   19.3325   12.2434 H       5  UNL5        0.0230
    100 C          -3.3638   16.5658   11.9443 C.3     5  UNL5        0.0135
    101 C          -2.1877   17.2913   11.2910 C.3     5  UNL5       -0.0374
    102 H          -3.8540   15.8729   11.2464 H       5  UNL5        0.0464
    103 H          -1.5784   16.5138   10.8052 H       5  UNL5        0.0280
    104 H          -2.5586   17.9327   10.4783 H       5  UNL5        0.0280
    105 H          -5.0299   18.4295   10.6035 H       5  UNL5        0.0793
    106 F          -3.3585   24.2966   12.8980 F       6  UNL6       -0.1492
    107 F          -0.1622   22.7517   12.6466 F       6  UNL6       -0.1492
    108 F          -2.1797   25.0834   11.2126 F       6  UNL6       -0.1492
    109 F          -3.9104   26.2081   11.9656 F       6  UNL6       -0.1492
    110 O          -2.6267   26.3544   14.7703 O.2     6  UNL6       -0.1468
    111 C          -2.8533   25.4301   12.3369 C.3     6  UNL6        0.5387
    112 F           1.0013   23.0499   14.4953 F       6  UNL6       -0.1492
    113 C           0.9224   23.3841   13.1807 C.3     6  UNL6        0.5387
    114 F           2.0313   22.9142   12.5496 F       6  UNL6       -0.1492
    115 S          -1.7851   26.3416   13.5883 S.O2    6  UNL6        0.1638
    116 S           0.7763   25.2396   12.9400 S.O2    6  UNL6        0.1638
    117 O          -1.4629   27.5915   12.9013 O.2     6  UNL6       -0.1468
    118 O           1.9689   25.8046   13.5860 O.2     6  UNL6       -0.1468
    119 O           0.6253   25.4416   11.5045 O.2     6  UNL6       -0.1468
    120 N          -0.5248   25.4032   13.8652 N.3     6  UNL6        0.0775
    121 N          -8.7088   10.2593   25.5581 N.pl3   7  UNL7       -0.3135
    122 N         -10.0143   11.3596   26.9174 N.pl3   7  UNL7       -0.3166
    123 C          -9.0636   10.4083   26.8471 C.3     7  UNL7        0.1250
    124 C         -10.2756   11.8230   25.6412 C.2     7  UNL7        0.0072
    125 C         -10.6852   11.8004   28.1448 C.3     7  UNL7        0.0020
    126 H          -8.6567    9.8548   27.6846 H       7  UNL7        0.0746
    127 H         -11.0281   12.5801   25.4571 H       7  UNL7        0.0793
    128 H         -11.2074   12.7382   27.9412 H       7  UNL7        0.0428
    129 H         -11.4102   11.0386   28.4576 H       7  UNL7        0.0428
    130 H          -9.9384   11.9575   28.9282 H       7  UNL7        0.0428
    131 C          -9.4519   11.1381   24.7888 C.2     7  UNL7        0.0074
    132 C          -5.6288   10.8598   25.3715 C.3     7  UNL7       -0.0545
    133 H          -7.3472    8.7376   25.9186 H       7  UNL7        0.0464
    134 H          -6.2270   11.6450   25.8560 H       7  UNL7        0.0263
    135 H          -5.2772   10.1960   26.1756 H       7  UNL7        0.0263
    136 C          -4.4211   11.4927   24.6635 C.3     7  UNL7       -0.0652
    137 H          -4.7407   12.1604   23.8505 H       7  UNL7        0.0230
    138 H          -3.7691   10.7146   24.2401 H       7  UNL7        0.0230
    139 H          -3.8127   12.0933   25.3537 H       7  UNL7        0.0230
    140 C          -7.6763    9.3266   25.0545 C.3     7  UNL7        0.0135
    141 C          -6.5002   10.0521   24.4013 C.3     7  UNL7       -0.0374
    142 H          -8.1665    8.6337   24.3567 H       7  UNL7        0.0464
    143 H          -5.8909    9.2746   23.9155 H       7  UNL7        0.0280
    144 H          -6.8711   10.6935   23.5886 H       7  UNL7        0.0280
    145 H          -9.3424   11.1903   23.7138 H       7  UNL7        0.0793
    146 F          -7.6711   17.0574   26.0082 F       8  UNL8       -0.1492
    147 F          -4.4747   15.5125   25.7568 F       8  UNL8       -0.1492
    148 F          -6.4922   17.8442   24.3228 F       8  UNL8       -0.1492
    149 F          -8.2230   18.9689   25.0758 F       8  UNL8       -0.1492
    150 O          -6.9393   19.1152   27.8806 O.2     8  UNL8       -0.1468
    151 C          -7.1658   18.1909   25.4471 C.3     8  UNL8        0.5387
    152 F          -3.3113   15.8107   27.6056 F       8  UNL8       -0.1492
    153 C          -3.3901   16.1449   26.2909 C.3     8  UNL8        0.5387
    154 F          -2.2813   15.6750   25.6598 F       8  UNL8       -0.1492
    155 S          -6.0977   19.1024   26.6986 S.O2    8  UNL8        0.1638
    156 S          -3.5362   18.0004   26.0503 S.O2    8  UNL8        0.1638
    157 O          -5.7755   20.3523   26.0115 O.2     8  UNL8       -0.1468
    158 O          -2.3437   18.5654   26.6963 O.2     8  UNL8       -0.1468
    159 O          -3.6872   18.2024   24.6148 O.2     8  UNL8       -0.1468
    160 N          -4.8373   18.1640   26.9754 N.3     8  UNL8        0.0775
    161 N          18.6351    3.1217   12.4479 N.pl3   9  UNL9       -0.3135
    162 N          17.3296    4.2220   13.8072 N.pl3   9  UNL9       -0.3166
    163 C          18.2803    3.2707   13.7368 C.3     9  UNL9        0.1250
    164 C          17.0683    4.6854   12.5310 C.2     9  UNL9        0.0072
    165 C          16.6586    4.6628   15.0345 C.3     9  UNL9        0.0020
    166 H          18.6872    2.7172   14.5743 H       9  UNL9        0.0746
    167 H          16.3158    5.4425   12.3468 H       9  UNL9        0.0793
    168 H          16.1365    5.6006   14.8309 H       9  UNL9        0.0428
    169 H          15.9336    3.9010   15.3474 H       9  UNL9        0.0428
    170 H          17.4054    4.8199   15.8180 H       9  UNL9        0.0428
    171 C          17.8920    4.0005   11.6786 C.2     9  UNL9        0.0074
    172 C          21.7150    3.7222   12.2612 C.3     9  UNL9       -0.0545
    173 H          19.9967    1.6000   12.8083 H       9  UNL9        0.0464
    174 H          21.1168    4.5074   12.7457 H       9  UNL9        0.0263
    175 H          22.0666    3.0584   13.0653 H       9  UNL9        0.0263
    176 C          22.9228    4.3551   11.5532 C.3     9  UNL9       -0.0652
    177 H          22.6032    5.0228   10.7402 H       9  UNL9        0.0230
    178 H          23.5747    3.5770   11.1298 H       9  UNL9        0.0230
    179 H          23.5312    4.9557   12.2434 H       9  UNL9        0.0230
    180 C          19.6676    2.1890   11.9443 C.3     9  UNL9        0.0135
    181 C          20.8436    2.9145   11.2910 C.3     9  UNL9       -0.0374
    182 H          19.1773    1.4961   11.2464 H       9  UNL9        0.0464
    183 H          21.4530    2.1369   10.8052 H       9  UNL9        0.0280
    184 H          20.4728    3.5559   10.4783 H       9  UNL9        0.0280
    185 H          18.0014    4.0527   10.6035 H       9  UNL9        0.0793
    186 F          19.6728    9.9198   12.8980 F      10  UNL10      -0.1492
    187 F          22.8692    8.3749   12.6466 F      10  UNL10      -0.1492
    188 F          20.8516   10.7066   11.2126 F      10  UNL10      -0.1492
    189 F          19.1209   11.8313   11.9656 F      10  UNL10      -0.1492
    190 O          20.4046   11.9776   14.7703 O.2    10  UNL10      -0.1468
    191 C          20.1780   11.0533   12.3369 C.3    10  UNL10       0.5387
    192 F          24.0326    8.6731   14.4953 F      10  UNL10      -0.1492
    193 C          23.9537    9.0073   13.1807 C.3    10  UNL10       0.5387
    194 F          25.0626    8.5374   12.5496 F      10  UNL10      -0.1492
    195 S          21.2462   11.9648   13.5883 S.O2   10  UNL10       0.1638
    196 S          23.8076   10.8628   12.9400 S.O2   10  UNL10       0.1638
    197 O          21.5684   13.2146   12.9013 O.2    10  UNL10      -0.1468
    198 O          25.0002   11.4278   13.5860 O.2    10  UNL10      -0.1468
    199 O          23.6567   11.0648   11.5045 O.2    10  UNL10      -0.1468
    200 N          22.5066   11.0264   13.8652 N.3    10  UNL10       0.0775
    201 N          14.3226   -4.1176   25.5581 N.pl3  11  UNL11      -0.3135
    202 N          13.0170   -3.0172   26.9174 N.pl3  11  UNL11      -0.3166
    203 C          13.9678   -3.9685   26.8471 C.3    11  UNL11       0.1250
    204 C          12.7558   -2.5538   25.6412 C.2    11  UNL11       0.0072
    205 C          12.3461   -2.5764   28.1448 C.3    11  UNL11       0.0020
    206 H          14.3746   -4.5220   27.6846 H      11  UNL11       0.0746
    207 H          12.0032   -1.7967   25.4571 H      11  UNL11       0.0793
    208 H          11.8240   -1.6386   27.9412 H      11  UNL11       0.0428
    209 H          11.6211   -3.3382   28.4576 H      11  UNL11       0.0428
    210 H          13.0929   -2.4193   28.9282 H      11  UNL11       0.0428
    211 C          13.5794   -3.2387   24.7888 C.2    11  UNL11       0.0074
    212 C          17.4025   -3.5170   25.3715 C.3    11  UNL11      -0.0545
    213 H          15.6842   -5.6392   25.9186 H      11  UNL11       0.0464
    214 H          16.8043   -2.7318   25.8560 H      11  UNL11       0.0263
    215 H          17.7541   -4.1808   26.1756 H      11  UNL11       0.0263
    216 C          18.6103   -2.8841   24.6635 C.3    11  UNL11      -0.0652
    217 H          18.2907   -2.2164   23.8505 H      11  UNL11       0.0230
    218 H          19.2622   -3.6622   24.2401 H      11  UNL11       0.0230
    219 H          19.2187   -2.2836   25.3537 H      11  UNL11       0.0230
    220 C          15.3550   -5.0502   25.0545 C.3    11  UNL11       0.0135
    221 C          16.5311   -4.3247   24.4013 C.3    11  UNL11      -0.0374
    222 H          14.8648   -5.7431   24.3567 H      11  UNL11       0.0464
    223 H          17.1404   -5.1023   23.9155 H      11  UNL11       0.0280
    224 H          16.1602   -3.6833   23.5886 H      11  UNL11       0.0280
    225 H          13.6889   -3.1865   23.7138 H      11  UNL11       0.0793
    226 F          15.3603    2.6806   26.0082 F      12  UNL12      -0.1492
    227 F          18.5566    1.1357   25.7568 F      12  UNL12      -0.1492
    228 F          16.5391    3.4674   24.3228 F      12  UNL12      -0.1492
    229 F          14.8084    4.5921   25.0758 F      12  UNL12      -0.1492
    230 O          16.0920    4.7384   27.8806 O.2    12  UNL12      -0.1468
    231 C          15.8655    3.8141   25.4471 C.3    12  UNL12       0.5387
    232 F          19.7201    1.4339   27.6056 F      12  UNL12      -0.1492
    233 C          19.6412    1.7681   26.2909 C.3    12  UNL12       0.5387
    234 F          20.7501    1.2982   25.6598 F      12  UNL12      -0.1492
    235 S          16.9337    4.7256   26.6986 S.O2   12  UNL12       0.1638
    236 S          19.4951    3.6236   26.0503 S.O2   12  UNL12       0.1638
    237 O          17.2559    5.9754   26.0115 O.2    12  UNL12      -0.1468
    238 O          20.6877    4.1886   26.6963 O.2    12  UNL12      -0.1468
    239 O          19.3441    3.8256   24.6148 O.2    12  UNL12      -0.1468
    240 N          18.1940    3.7872   26.9754 N.3    12  UNL12       0.0775
    241 N          11.6132   17.4985   12.4479 N.pl3  13  UNL13      -0.3135
    242 N          10.3076   18.5988   13.8072 N.pl3  13  UNL13      -0.3166
    243 C          11.2584   17.6475   13.7368 C.3    13  UNL13       0.1250
    244 C          10.0464   19.0622   12.5310 C.2    13  UNL13       0.0072
    245 C           9.6367   19.0396   15.0345 C.3    13  UNL13       0.0020
    246 H          11.6652   17.0940   14.5743 H      13  UNL13       0.0746
    247 H           9.2938   19.8193   12.3468 H      13  UNL13       0.0793
    248 H           9.1146   19.9774   14.8309 H      13  UNL13       0.0428
    249 H           8.9117   18.2778   15.3474 H      13  UNL13       0.0428
    250 H          10.3835   19.1967   15.8180 H      13  UNL13       0.0428
    251 C          10.8700   18.3773   11.6786 C.2    13  UNL13       0.0074
    252 C          14.6931   18.0990   12.2612 C.3    13  UNL13      -0.0545
    253 H          12.9748   15.9768   12.8083 H      13  UNL13       0.0464
    254 H          14.0949   18.8842   12.7457 H      13  UNL13       0.0263
    255 H          15.0447   17.4352   13.0653 H      13  UNL13       0.0263
    256 C          15.9009   18.7319   11.5532 C.3    13  UNL13      -0.0652
    257 H          15.5813   19.3996   10.7402 H      13  UNL13       0.0230
    258 H          16.5528   17.9538   11.1298 H      13  UNL13       0.0230
    259 H          16.5093   19.3325   12.2434 H      13  UNL13       0.0230
    260 C          12.6456   16.5658   11.9443 C.3    13  UNL13       0.0135
    261 C          13.8217   17.2913   11.2910 C.3    13  UNL13      -0.0374
    262 H          12.1554   15.8729   11.2464 H      13  UNL13       0.0464
    263 H          14.4310   16.5138   10.8052 H      13  UNL13       0.0280
    264 H          13.4508   17.9327   10.4783 H      13  UNL13       0.0280
    265 H          10.9795   18.4295   10.6035 H      13  UNL13       0.0793
    266 F          12.6509   24.2966   12.8980 F      14  UNL14      -0.1492
    267 F          15.8472   22.7517   12.6466 F      14  UNL14      -0.1492
    268 F          13.8297   25.0834   11.2126 F      14  UNL14      -0.1492
    269 F          12.0990   26.2081   11.9656 F      14  UNL14      -0.1492
    270 O          13.3826   26.3544   14.7703 O.2    14  UNL14      -0.1468
    271 C          13.1561   25.4301   12.3369 C.3    14  UNL14       0.5387
    272 F          17.0107   23.0499   14.4953 F      14  UNL14      -0.1492
    273 C          16.9318   23.3841   13.1807 C.3    14  UNL14       0.5387
    274 F          18.0407   22.9142   12.5496 F      14  UNL14      -0.1492
    275 S          14.2243   26.3416   13.5883 S.O2   14  UNL14       0.1638
    276 S          16.7857   25.2396   12.9400 S.O2   14  UNL14       0.1638
    277 O          14.5464   27.5915   12.9013 O.2    14  UNL14      -0.1468
    278 O          17.9783   25.8046   13.5860 O.2    14  UNL14      -0.1468
    279 O          16.6347   25.4416   11.5045 O.2    14  UNL14      -0.1468
    280 N          15.4846   25.4032   13.8652 N.3    14  UNL14       0.0775
    281 N           7.3006   10.2593   25.5581 N.pl3  15  UNL15      -0.3135
    282 N           5.9951   11.3596   26.9174 N.pl3  15  UNL15      -0.3166
    283 C           6.9458   10.4083   26.8471 C.3    15  UNL15       0.1250
    284 C           5.7338   11.8230   25.6412 C.2    15  UNL15       0.0072
    285 C           5.3242   11.8004   28.1448 C.3    15  UNL15       0.0020
    286 H           7.3527    9.8548   27.6846 H      15  UNL15       0.0746
    287 H           4.9813   12.5801   25.4571 H      15  UNL15       0.0793
    288 H           4.8020   12.7382   27.9412 H      15  UNL15       0.0428
    289 H           4.5992   11.0386   28.4576 H      15  UNL15       0.0428
    290 H           6.0710   11.9575   28.9282 H      15  UNL15       0.0428
    291 C           6.5575   11.1381   24.7888 C.2    15  UNL15       0.0074
    292 C          10.3806   10.8598   25.3715 C.3    15  UNL15      -0.0545
    293 H           8.6622    8.7376   25.9186 H      15  UNL15       0.0464
    294 H           9.7823   11.6450   25.8560 H      15  UNL15       0.0263
    295 H          10.7322   10.1960   26.1756 H      15  UNL15       0.0263
    296 C          11.5883   11.4927   24.6635 C.3    15  UNL15      -0.0652
    297 H          11.2687   12.1604   23.8505 H      15  UNL15       0.0230
    298 H          12.2402   10.7146   24.2401 H      15  UNL15       0.0230
    299 H          12.1967   12.0933   25.3537 H      15  UNL15       0.0230
    300 C           8.3331    9.3266   25.0545 C.3    15  UNL15       0.0135
    301 C           9.5092   10.0521   24.4013 C.3    15  UNL15      -0.0374
    302 H           7.8429    8.6337   24.3567 H      15  UNL15       0.0464
    303 H          10.1185    9.2746   23.9155 H      15  UNL15       0.0280
    304 H           9.1383   10.6935   23.5886 H      15  UNL15       0.0280
    305 H           6.6669   11.1903   23.7138 H      15  UNL15       0.0793
    306 F           8.3383   17.0574   26.0082 F      16  UNL16      -0.1492
    307 F          11.5347   15.5125   25.7568 F      16  UNL16      -0.1492
    308 F           9.5172   17.8442   24.3228 F      16  UNL16      -0.1492
    309 F           7.7864   18.9689   25.0758 F      16  UNL16      -0.1492
    310 O           9.0701   19.1152   27.8806 O.2    16  UNL16      -0.1468
    311 C           8.8436   18.1909   25.4471 C.3    16  UNL16       0.5387
    312 F          12.6981   15.8107   27.6056 F      16  UNL16      -0.1492
    313 C          12.6193   16.1449   26.2909 C.3    16  UNL16       0.5387
    314 F          13.7281   15.6750   25.6598 F      16  UNL16      -0.1492
    315 S           9.9117   19.1024   26.6986 S.O2   16  UNL16       0.1638
    316 S          12.4732   18.0004   26.0503 S.O2   16  UNL16       0.1638
    317 O          10.2339   20.3523   26.0115 O.2    16  UNL16      -0.1468
    318 O          13.6657   18.5654   26.6963 O.2    16  UNL16      -0.1468
    319 O          12.3222   18.2024   24.6148 O.2    16  UNL16      -0.1468
    320 N          11.1721   18.1640   26.9754 N.3    16  UNL16       0.0775
@<TRIPOS>BOND
     1    24    21    1
     2   264   261    1
     3   104   101    1
     4   184   181    1
     5   265   251    1
     6   185   171    1
     7    25    11    1
     8   105    91    1
     9   177   176    1
    10   257   256    1
    11    97    96    1
    12    17    16    1
    13   183   181    1
    14   103   101    1
    15    23    21    1
    16   263   261    1
    17    18    16    1
    18   178   176    1
    19    98    96    1
    20   258   256    1
    21   188   191    1
    22   108   111    1
    23   268   271    1
    24    28    31    1
    25   262   260    1
    26    22    20    1
    27   182   180    1
    28   102   100    1
    29   261   260    1
    30   261   252    1
    31   181   180    1
    32   181   172    1
    33   101   100    1
    34   101    92    1
    35    21    20    1
    36    21    12    1
    37    39    36    2
    38   199   196    2
    39   119   116    2
    40   279   276    2
    41   256   259    1
    42   256   252    1
    43    96    99    1
    44    96    92    1
    45    16    19    1
    46    16    12    1
    47   176   179    1
    48   176   172    1
    49    91    81    1
    50    91    84    2
    51    11     1    1
    52    11     4    2
    53   171   161    1
    54   171   164    2
    55   251   241    1
    56   251   244    2
    57   260   241    1
    58   260   253    1
    59   180   161    1
    60   180   173    1
    61   100    81    1
    62   100    93    1
    63    20     1    1
    64    20    13    1
    65   269   271    1
    66    29    31    1
    67   109   111    1
    68   189   191    1
    69    92    94    1
    70    92    95    1
    71    12    14    1
    72    12    15    1
    73   252   254    1
    74   252   255    1
    75   172   174    1
    76   172   175    1
    77   191   186    1
    78   191   195    1
    79   271   266    1
    80   271   275    1
    81    31    26    1
    82    31    35    1
    83   111   106    1
    84   111   115    1
    85   247   244    1
    86    87    84    1
    87     7     4    1
    88   167   164    1
    89    81    83    1
    90   161   163    1
    91   241   243    1
    92     1     3    1
    93   164   162    1
    94     4     2    1
    95   244   242    1
    96    84    82    1
    97   194   193    1
    98   114   113    1
    99   274   273    1
   100    34    33    1
   101   187   193    1
   102    27    33    1
   103   107   113    1
   104   267   273    1
   105    37    35    2
   106   277   275    2
   107   197   195    2
   108   117   115    2
   109   276   273    1
   110   276   278    2
   111   276   280    1
   112    36    33    1
   113    36    38    2
   114    36    40    1
   115   196   193    1
   116   196   198    2
   117   196   200    1
   118   116   113    1
   119   116   118    2
   120   116   120    1
   121   113   112    1
   122   193   192    1
   123   273   272    1
   124    33    32    1
   125    35    40    1
   126    35    30    2
   127   115   120    1
   128   115   110    2
   129   275   280    1
   130   275   270    2
   131   195   200    1
   132   195   190    2
   133    83    82    1
   134    83    86    1
   135   243   242    1
   136   243   246    1
   137     3     2    1
   138     3     6    1
   139   163   162    1
   140   163   166    1
   141   242   245    1
   142   162   165    1
   143     2     5    1
   144    82    85    1
   145    88    85    1
   146     8     5    1
   147   168   165    1
   148   248   245    1
   149    85    89    1
   150    85    90    1
   151   165   169    1
   152   165   170    1
   153     5     9    1
   154     5    10    1
   155   245   249    1
   156   245   250    1
   157   144   141    1
   158    64    61    1
   159   304   301    1
   160   224   221    1
   161   225   211    1
   162   305   291    1
   163   145   131    1
   164    65    51    1
   165   217   216    1
   166   137   136    1
   167   297   296    1
   168    57    56    1
   169    63    61    1
   170   223   221    1
   171   303   301    1
   172   143   141    1
   173   218   216    1
   174   138   136    1
   175    58    56    1
   176   298   296    1
   177   308   311    1
   178    68    71    1
   179   228   231    1
   180   148   151    1
   181   222   220    1
   182   302   300    1
   183    62    60    1
   184   142   140    1
   185   221   220    1
   186   221   212    1
   187   301   300    1
   188   301   292    1
   189    61    60    1
   190    61    52    1
   191   141   140    1
   192   141   132    1
   193   239   236    2
   194   319   316    2
   195   159   156    2
   196    79    76    2
   197   136   139    1
   198   136   132    1
   199   296   299    1
   200   296   292    1
   201    56    59    1
   202    56    52    1
   203   216   219    1
   204   216   212    1
   205   291   281    1
   206   291   284    2
   207   131   121    1
   208   131   124    2
   209    51    41    1
   210    51    44    2
   211   211   201    1
   212   211   204    2
   213   140   121    1
   214   140   133    1
   215    60    41    1
   216    60    53    1
   217   300   281    1
   218   300   293    1
   219   220   201    1
   220   220   213    1
   221    69    71    1
   222   149   151    1
   223   309   311    1
   224   229   231    1
   225   292   294    1
   226   292   295    1
   227   212   214    1
   228   212   215    1
   229   132   134    1
   230   132   135    1
   231    52    54    1
   232    52    55    1
   233   231   226    1
   234   231   235    1
   235    71    66    1
   236    71    75    1
   237   311   306    1
   238   311   315    1
   239   151   146    1
   240   151   155    1
   241   207   204    1
   242    47    44    1
   243   127   124    1
   244   287   284    1
   245    41    43    1
   246   121   123    1
   247   281   283    1
   248   201   203    1
   249   124   122    1
   250   204   202    1
   251    44    42    1
   252   284   282    1
   253   234   233    1
   254   314   313    1
   255    74    73    1
   256   154   153    1
   257   147   153    1
   258   307   313    1
   259    67    73    1
   260   227   233    1
   261   317   315    2
   262   237   235    2
   263    77    75    2
   264   157   155    2
   265   156   153    1
   266   156   158    2
   267   156   160    1
   268   316   313    1
   269   316   318    2
   270   316   320    1
   271    76    73    1
   272    76    78    2
   273    76    80    1
   274   236   233    1
   275   236   238    2
   276   236   240    1
   277   313   312    1
   278   153   152    1
   279    73    72    1
   280   233   232    1
   281    75    80    1
   282    75    70    2
   283   155   160    1
   284   155   150    2
   285   315   320    1
   286   315   310    2
   287   235   240    1
   288   235   230    2
   289   283   282    1
   290   283   286    1
   291   203   202    1
   292   203   206    1
   293   123   122    1
   294   123   126    1
   295    43    42    1
   296    43    46    1
   297   202   205    1
   298   282   285    1
   299   122   125    1
   300    42    45    1
   301   128   125    1
   302   208   205    1
   303    48    45    1
   304   288   285    1
   305   205   209    1
   306   205   210    1
   307   125   129    1
   308   125   130    1
   309    45    49    1
   310    45    50    1
   311   285   289    1
   312   285   290    1
