@<TRIPOS>MOLECULE
Lattice="32.008514 0.0 0.0 -12.398571412536722 30.280097380190625 0.0 -9.472523905389702 -14.929449512315577 26.824217628519282" Properties=species:S:1:pos:R:3 i=12 E=-1648.7661054389 pbc="T T T"
 120 112 0 0 0
SMALL
GASTEIGER

@<TRIPOS>ATOM
      1 S           2.7782    4.3643    2.3404 S.O2    1  UNL1        0.1638
      2 S           4.5797    2.1150    2.4977 S.O2    1  UNL1        0.1638
      3 F           0.5387    2.9960    1.8411 F       1  UNL1       -0.1492
      4 F           0.9061    4.7030    0.4893 F       1  UNL1       -0.1492
      5 F           2.0231    2.8305    0.2282 F       1  UNL1       -0.1492
      6 F           4.3446   -0.5142    2.0708 F       1  UNL1       -0.1492
      7 F           3.4127    0.1573    3.9471 F       1  UNL1       -0.1492
      8 F           2.4247    0.5364    2.0109 F       1  UNL1       -0.1492
      9 O           3.6481    5.1804    1.4836 O.2     1  UNL1       -0.1468
     10 O           1.9429    5.0361    3.3234 O.2     1  UNL1       -0.1468
     11 O           5.6393    1.9394    3.4862 O.2     1  UNL1       -0.1468
     12 O           4.9205    2.2286    1.0864 O.2     1  UNL1       -0.1468
     13 N           3.4568    3.1167    3.0621 N.3     1  UNL1        0.0775
     14 C           1.5010    3.6716    1.1535 C.3     1  UNL1        0.5387
     15 C           3.6276    0.4936    2.6426 C.3     1  UNL1        0.5387
     16 S          -1.9581   -3.1004   15.7525 S.O2    2  UNL2        0.1638
     17 S          -0.1566   -5.3498   15.9098 S.O2    2  UNL2        0.1638
     18 F          -4.1976   -4.4687   15.2532 F       2  UNL2       -0.1492
     19 F          -3.8301   -2.7617   13.9014 F       2  UNL2       -0.1492
     20 F          -2.7132   -4.6342   13.6403 F       2  UNL2       -0.1492
     21 F          -0.3917   -7.9789   15.4829 F       2  UNL2       -0.1492
     22 F          -1.3236   -7.3074   17.3592 F       2  UNL2       -0.1492
     23 F          -2.3116   -6.9283   15.4231 F       2  UNL2       -0.1492
     24 O          -1.0882   -2.2843   14.8957 O.2     2  UNL2       -0.1468
     25 O          -2.7933   -2.4286   16.7355 O.2     2  UNL2       -0.1468
     26 O           0.9030   -5.5254   16.8983 O.2     2  UNL2       -0.1468
     27 O           0.1842   -5.2361   14.4985 O.2     2  UNL2       -0.1468
     28 N          -1.2795   -4.3480   16.4742 N.3     2  UNL2        0.0775
     29 C          -3.2353   -3.7931   14.5656 C.3     2  UNL2        0.5387
     30 C          -1.1086   -6.9712   16.0547 C.3     2  UNL2        0.5387
     31 S          -3.4211   19.5044    2.3404 S.O2    3  UNL3        0.1638
     32 S          -1.6196   17.2550    2.4977 S.O2    3  UNL3        0.1638
     33 F          -5.6606   18.1361    1.8411 F       3  UNL3       -0.1492
     34 F          -5.2932   19.8431    0.4893 F       3  UNL3       -0.1492
     35 F          -4.1762   17.9705    0.2282 F       3  UNL3       -0.1492
     36 F          -1.8547   14.6258    2.0708 F       3  UNL3       -0.1492
     37 F          -2.7866   15.2973    3.9471 F       3  UNL3       -0.1492
     38 F          -3.7746   15.6765    2.0109 F       3  UNL3       -0.1492
     39 O          -2.5512   20.3204    1.4836 O.2     3  UNL3       -0.1468
     40 O          -4.2564   20.1762    3.3234 O.2     3  UNL3       -0.1468
     41 O          -0.5600   17.0794    3.4862 O.2     3  UNL3       -0.1468
     42 O          -1.2788   17.3687    1.0864 O.2     3  UNL3       -0.1468
     43 N          -2.7425   18.2567    3.0621 N.3     3  UNL3        0.0775
     44 C          -4.6983   18.8116    1.1535 C.3     3  UNL3        0.5387
     45 C          -2.5716   15.6336    2.6426 C.3     3  UNL3        0.5387
     46 S          -8.1574   12.0396   15.7525 S.O2    4  UNL4        0.1638
     47 S          -6.3559    9.7903   15.9098 S.O2    4  UNL4        0.1638
     48 F         -10.3969   10.6714   15.2532 F       4  UNL4       -0.1492
     49 F         -10.0294   12.3783   13.9014 F       4  UNL4       -0.1492
     50 F          -8.9125   10.5058   13.6403 F       4  UNL4       -0.1492
     51 F          -6.5910    7.1611   15.4829 F       4  UNL4       -0.1492
     52 F          -7.5228    7.8326   17.3592 F       4  UNL4       -0.1492
     53 F          -8.5109    8.2117   15.4231 F       4  UNL4       -0.1492
     54 O          -7.2874   12.8557   14.8957 O.2     4  UNL4       -0.1468
     55 O          -8.9926   12.7114   16.7355 O.2     4  UNL4       -0.1468
     56 O          -5.2963    9.6147   16.8983 O.2     4  UNL4       -0.1468
     57 O          -6.0151    9.9040   14.4985 O.2     4  UNL4       -0.1468
     58 N          -7.4788   10.7920   16.4742 N.3     4  UNL4        0.0775
     59 C          -9.4346   11.3469   14.5656 C.3     4  UNL4        0.5387
     60 C          -7.3079    8.1689   16.0547 C.3     4  UNL4        0.5387
     61 S          18.7824    4.3643    2.3404 S.O2    5  UNL5        0.1638
     62 S          20.5839    2.1150    2.4977 S.O2    5  UNL5        0.1638
     63 F          16.5429    2.9960    1.8411 F       5  UNL5       -0.1492
     64 F          16.9104    4.7030    0.4893 F       5  UNL5       -0.1492
     65 F          18.0273    2.8305    0.2282 F       5  UNL5       -0.1492
     66 F          20.3488   -0.5142    2.0708 F       5  UNL5       -0.1492
     67 F          19.4170    0.1573    3.9471 F       5  UNL5       -0.1492
     68 F          18.4289    0.5364    2.0109 F       5  UNL5       -0.1492
     69 O          19.6524    5.1804    1.4836 O.2     5  UNL5       -0.1468
     70 O          17.9472    5.0361    3.3234 O.2     5  UNL5       -0.1468
     71 O          21.6435    1.9394    3.4862 O.2     5  UNL5       -0.1468
     72 O          20.9247    2.2286    1.0864 O.2     5  UNL5       -0.1468
     73 N          19.4610    3.1167    3.0621 N.3     5  UNL5        0.0775
     74 C          17.5052    3.6716    1.1535 C.3     5  UNL5        0.5387
     75 C          19.6319    0.4936    2.6426 C.3     5  UNL5        0.5387
     76 S          14.0462   -3.1004   15.7525 S.O2    6  UNL6        0.1638
     77 S          15.8477   -5.3498   15.9098 S.O2    6  UNL6        0.1638
     78 F          11.8067   -4.4687   15.2532 F       6  UNL6       -0.1492
     79 F          12.1741   -2.7617   13.9014 F       6  UNL6       -0.1492
     80 F          13.2911   -4.6342   13.6403 F       6  UNL6       -0.1492
     81 F          15.6126   -7.9789   15.4829 F       6  UNL6       -0.1492
     82 F          14.6807   -7.3074   17.3592 F       6  UNL6       -0.1492
     83 F          13.6927   -6.9283   15.4231 F       6  UNL6       -0.1492
     84 O          14.9161   -2.2843   14.8957 O.2     6  UNL6       -0.1468
     85 O          13.2109   -2.4286   16.7355 O.2     6  UNL6       -0.1468
     86 O          16.9073   -5.5254   16.8983 O.2     6  UNL6       -0.1468
     87 O          16.1885   -5.2361   14.4985 O.2     6  UNL6       -0.1468
     88 N          14.7248   -4.3480   16.4742 N.3     6  UNL6        0.0775
     89 C          12.7690   -3.7931   14.5656 C.3     6  UNL6        0.5387
     90 C          14.8956   -6.9712   16.0547 C.3     6  UNL6        0.5387
     91 S          12.5831   19.5044    2.3404 S.O2    7  UNL7        0.1638
     92 S          14.3847   17.2550    2.4977 S.O2    7  UNL7        0.1638
     93 F          10.3436   18.1361    1.8411 F       7  UNL7       -0.1492
     94 F          10.7111   19.8431    0.4893 F       7  UNL7       -0.1492
     95 F          11.8281   17.9705    0.2282 F       7  UNL7       -0.1492
     96 F          14.1495   14.6258    2.0708 F       7  UNL7       -0.1492
     97 F          13.2177   15.2973    3.9471 F       7  UNL7       -0.1492
     98 F          12.2296   15.6765    2.0109 F       7  UNL7       -0.1492
     99 O          13.4531   20.3204    1.4836 O.2     7  UNL7       -0.1468
    100 O          11.7479   20.1762    3.3234 O.2     7  UNL7       -0.1468
    101 O          15.4442   17.0794    3.4862 O.2     7  UNL7       -0.1468
    102 O          14.7255   17.3687    1.0864 O.2     7  UNL7       -0.1468
    103 N          13.2617   18.2567    3.0621 N.3     7  UNL7        0.0775
    104 C          11.3059   18.8116    1.1535 C.3     7  UNL7        0.5387
    105 C          13.4326   15.6336    2.6426 C.3     7  UNL7        0.5387
    106 S           7.8469   12.0396   15.7525 S.O2    8  UNL8        0.1638
    107 S           9.6484    9.7903   15.9098 S.O2    8  UNL8        0.1638
    108 F           5.6074   10.6714   15.2532 F       8  UNL8       -0.1492
    109 F           5.9748   12.3783   13.9014 F       8  UNL8       -0.1492
    110 F           7.0918   10.5058   13.6403 F       8  UNL8       -0.1492
    111 F           9.4133    7.1611   15.4829 F       8  UNL8       -0.1492
    112 F           8.4814    7.8326   17.3592 F       8  UNL8       -0.1492
    113 F           7.4934    8.2117   15.4231 F       8  UNL8       -0.1492
    114 O           8.7168   12.8557   14.8957 O.2     8  UNL8       -0.1468
    115 O           7.0116   12.7114   16.7355 O.2     8  UNL8       -0.1468
    116 O          10.7080    9.6147   16.8983 O.2     8  UNL8       -0.1468
    117 O           9.9892    9.9040   14.4985 O.2     8  UNL8       -0.1468
    118 N           8.5255   10.7920   16.4742 N.3     8  UNL8        0.0775
    119 C           6.5697   11.3469   14.5656 C.3     8  UNL8        0.5387
    120 C           8.6964    8.1689   16.0547 C.3     8  UNL8        0.5387
@<TRIPOS>BOND
     1     5    14    1
     2    35    44    1
     3    65    74    1
     4    95   104    1
     5    34    44    1
     6     4    14    1
     7    94   104    1
     8    64    74    1
     9   102    92    2
    10    42    32    2
    11    72    62    2
    12    12     2    2
    13    14     3    1
    14    14     1    1
    15    74    63    1
    16    74    61    1
    17   104    93    1
    18   104    91    1
    19    44    33    1
    20    44    31    1
    21    69    61    2
    22    39    31    2
    23    99    91    2
    24     9     1    2
    25    38    45    1
    26    98   105    1
    27    68    75    1
    28     8    15    1
    29    96   105    1
    30    66    75    1
    31    36    45    1
    32     6    15    1
    33    91   103    1
    34    91   100    2
    35    31    43    1
    36    31    40    2
    37    61    73    1
    38    61    70    2
    39     1    13    1
    40     1    10    2
    41    62    75    1
    42    62    73    1
    43    62    71    2
    44     2    15    1
    45     2    13    1
    46     2    11    2
    47    92   105    1
    48    92   103    1
    49    92   101    2
    50    32    45    1
    51    32    43    1
    52    32    41    2
    53    45    37    1
    54   105    97    1
    55    75    67    1
    56    15     7    1
    57    20    29    1
    58   110   119    1
    59    80    89    1
    60    50    59    1
    61   109   119    1
    62    19    29    1
    63    79    89    1
    64    49    59    1
    65    27    17    2
    66    87    77    2
    67    57    47    2
    68   117   107    2
    69    59    48    1
    70    59    46    1
    71    29    18    1
    72    29    16    1
    73   119   108    1
    74   119   106    1
    75    89    78    1
    76    89    76    1
    77    54    46    2
    78   114   106    2
    79    24    16    2
    80    84    76    2
    81    53    60    1
    82    83    90    1
    83   113   120    1
    84    23    30    1
    85    81    90    1
    86    21    30    1
    87   111   120    1
    88    51    60    1
    89   106   118    1
    90   106   115    2
    91    46    58    1
    92    46    55    2
    93    16    28    1
    94    16    25    2
    95    76    88    1
    96    76    85    2
    97   107   120    1
    98   107   118    1
    99   107   116    2
   100    47    60    1
   101    47    58    1
   102    47    56    2
   103    77    90    1
   104    77    88    1
   105    77    86    2
   106    17    30    1
   107    17    28    1
   108    17    26    2
   109   120   112    1
   110    90    82    1
   111    30    22    1
   112    60    52    1
