@<TRIPOS>MOLECULE
Lattice="48.028173 0.0 0.0 -0.0 43.13043493897204 0.0 -0.0 -0.0 39.33082132276351" Properties=species:S:1:pos:R:3 pbc="T T T"
 3861 4209 0 0 0
SMALL
GASTEIGER

@<TRIPOS>ATOM
      1 TI         -2.8554    2.2298   11.2464 Ti      1  UNL1        0.0000
      2 TI          7.9750    5.1110    1.8816 Ti      1  UNL1        0.0000
      3 TI          1.2413   -1.7064    9.4264 Ti      1  UNL1        0.0000
      4 TI          2.7524    7.4557    3.6534 Ti      1  UNL1        0.0000
      5 TI          1.7539    9.1340    1.7490 Ti      1  UNL1        0.0000
      6 TI          3.1295   -1.9608   11.3798 Ti      1  UNL1        0.0000
      7 TI         -1.9062    0.4939    9.3549 Ti      1  UNL1        0.0000
      8 TI          5.9872    5.4135    3.7291 Ti      1  UNL1        0.0000
      9 H          -2.3536    6.1268   11.0269 H       1  UNL1        0.0000
     10 H           8.7838    1.2049    2.2023 H       1  UNL1        0.0000
     11 H          -6.8153    1.4731   10.8639 H       1  UNL1        0.0000
     12 H          11.3572    7.1153    2.0822 H       1  UNL1        0.0000
     13 H           4.1051   -5.9953   10.9939 H       1  UNL1        0.0000
     14 H          -2.3047    8.5441    2.0711 H       1  UNL1        0.0000
     15 H           2.2483    7.4972   -0.1241 H       1  UNL1        0.0000
     16 H           6.0995    4.8683    0.1817 H       1  UNL1        0.0000
     17 H           3.6394   -2.6279    5.8687 H       1  UNL1        0.0000
     18 H           1.0290    9.2927    7.2723 H       1  UNL1        0.0000
     19 H          -5.9789    3.8825    8.9990 H       1  UNL1        0.0000
     20 H          10.7298    3.0267    4.1876 H       1  UNL1        0.0000
     21 H          -3.6778    2.4351    5.6652 H       1  UNL1        0.0000
     22 H          -1.3462   10.9619    4.1022 H       1  UNL1        0.0000
     23 H           2.1461   12.2368    2.6045 H       1  UNL1        0.0000
     24 H           8.6260   -0.8139    3.4048 H      54  UNL54       0.0000
     25 H           4.8451    7.1358    2.3148 H       1  UNL1        0.0000
     26 H           0.1605    0.1420   10.7200 H       1  UNL1        0.0000
     27 H           7.3642   -0.0259    9.7694 H       1  UNL1        0.0000
     28 H           5.8831   -0.4950   10.5168 H       1  UNL1        0.0000
     29 H           7.9383    4.4077    8.6705 H       1  UNL1        0.0000
     30 H           7.3686    4.7663    7.0520 H       1  UNL1        0.0000
     31 H           6.8754   -4.9808    9.5794 H       1  UNL1        0.0000
     32 H           5.5962   -3.8802   10.0368 H       1  UNL1        0.0000
     33 C           8.5531    4.3697    4.7451 C.3     1  UNL1        0.0000
     34 C          -3.8160    2.4911    8.3994 C.3     1  UNL1        0.0000
     35 C           3.8218   -2.7171    8.5017 C.3     1  UNL1        0.0000
     36 C           0.8163    9.4262    4.6127 C.3     1  UNL1        0.0000
     37 C           9.4491    3.7654    5.7403 C.ar    1  UNL1        0.0000
     38 C          -4.7479    3.1162    7.4223 C.2     1  UNL1        0.0000
     39 C           4.7619   -3.3315    7.5545 C.2     1  UNL1        0.0000
     40 C          -0.0735   10.0730    5.6125 C.ar    1  UNL1        0.0000
     41 C           9.2003    3.8403    7.1467 C.ar    1  UNL1        0.0000
     42 C          -4.5315    2.9962    6.0343 C.3     1  UNL1        0.0000
     43 C           5.8914   -4.0918    8.0076 C.2     1  UNL1        0.0000
     44 C          -1.1682   10.8460    5.1676 C.ar    1  UNL1        0.0000
     45 C           0.1810    9.9022    6.9674 C.ar    1  UNL1        0.0000
     46 C           4.5142   -3.1994    6.1706 C.3     1  UNL1        0.0000
     47 C          10.5828    3.0664    5.2646 C.ar    1  UNL1        0.0000
     48 C          -5.8481    3.8086    7.9210 C.2     1  UNL1        0.0000
     49 C           8.7648    1.2840    0.0582 C.2     1  UNL1        0.0000
     50 C           2.2951   13.0756    0.0832 C.2     1  UNL1        0.0000
     51 C          11.2493    7.0471   -0.0678 C.2     1  UNL1        0.0000
     52 C          -2.1091    8.5895   -0.0872 C.2     1  UNL1        0.0000
     53 C           3.4992    5.1125    5.6180 C.3     1  UNL1        0.0000
     54 C          -1.2569   -1.9819    7.5361 C.2     1  UNL1        0.0000
     55 C           8.6290    2.7388    0.0350 C.2     1  UNL1        0.0000
     56 C           2.2024   11.6421    0.0457 C.2     1  UNL1        0.0000
     57 C           9.9514    6.4303   -0.0210 C.2     1  UNL1        0.0000
     58 C          -0.7067    9.0039   -0.0628 C.2     1  UNL1        0.0000
     59 C           8.8042    0.6149    1.2879 C.3     1  UNL1        0.0000
     60 C          -2.3426    6.7152   11.9408 C.ar    1  UNL1        0.0000
     61 C          11.9046    7.3219    1.1661 C.3     1  UNL1        0.0000
     62 C          -7.3768    1.2938   11.7793 C.3     1  UNL1        0.0000
     63 C           7.3089    0.2494   11.7938 C.ar    1  UNL1        0.0000
     64 C          -2.8062    8.3591    1.1253 C.3     1  UNL1        0.0000
     65 C           4.1467   -6.5225   11.9429 C.3     1  UNL1        0.0000
     66 C           2.3089   13.8268    1.3125 C.3     1  UNL1        0.0000
     67 N           2.3639   13.2279    2.5506 N.3     1  UNL1        0.0000
     68 N           6.7299    0.0666   10.5548 N.pl3   1  UNL1        0.0000
     69 N           8.1194    4.4866    7.6780 N.pl3   1  UNL1        0.0000
     70 N           6.2224   -4.2500    9.3250 N.pl3   1  UNL1        0.0000
     71 O           7.3767    4.7748    5.1109 O.3     1  UNL1        0.0000
     72 O          -3.0470    1.5403    8.0011 O.3     1  UNL1        0.0000
     73 O           4.2032   -2.5927    9.7228 O.3     1  UNL1        0.0000
     74 O           0.7504    9.8559    3.4131 O.3     1  UNL1        0.0000
     75 O           1.5868    8.4690    4.9992 O.3     1  UNL1        0.0000
     76 O           2.6513   -2.3487    8.0962 O.3     1  UNL1        0.0000
     77 O           8.9649    4.4505    3.5334 O.3     1  UNL1        0.0000
     78 O          -3.8580    2.9274    9.5991 O.3     1  UNL1        0.0000
     79 O           6.2924    4.1956    2.5344 O.3     1  UNL1        0.0000
     80 O          -1.3538    2.0542   10.0994 O.3     1  UNL1        0.0000
     81 O           7.2312    6.4829    2.9843 O.3     1  UNL1        0.0000
     82 O          -3.1060    0.3296   10.5921 O.3     1  UNL1        0.0000
     83 O           1.5006   -2.8784   10.6868 O.3     1  UNL1        0.0000
     84 O           3.2690    9.0170    2.9149 O.3     1  UNL1        0.0000
     85 O           2.4545   -0.6169   10.2227 O.3     1  UNL1        0.0000
     86 O           1.5628    7.2599    2.3975 O.3     1  UNL1        0.0000
     87 O           4.7203    4.9327    5.2637 O.3     1  UNL1        0.0000
     88 O          -1.9146   -0.9469    7.9143 O.2     1  UNL1        0.0000
     89 O           3.8718   -3.7326   11.9889 O.2     1  UNL1        0.0000
     90 O           2.1193   10.9406    1.1409 O.2     1  UNL1        0.0000
     91 O           4.6739   -0.9445   11.9838 O.3     1  UNL1        0.0000
     92 O          -0.1167    9.1049    1.0808 O.2     1  UNL1        0.0000
     93 O          -0.0951   -2.2764    7.9939 O.2     1  UNL1        0.0000
     94 O           2.7573    6.0334    5.1246 O.3     1  UNL1        0.0000
     95 O           9.4121    6.1301    1.1270 O.2     1  UNL1        0.0000
     96 O          -4.7422    2.1697   11.9148 O.2     1  UNL1        0.0000
     97 O           8.6165    3.3758    1.1564 O.2     1  UNL1        0.0000
     98 O          -2.4740    3.9521   11.9961 O.3     1  UNL1        0.0000
     99 O           4.4842    6.5871    3.0354 O.3     1  UNL1        0.0000
    100 O          -0.2177   -0.4167   10.0165 O.3     1  UNL1        0.0000
    101 O           6.9383    5.3620    0.1026 O.3     1  UNL1        0.0000
    102 O           2.3707    8.4640   -0.0641 O.3     1  UNL1        0.0000
    103 H           3.6404    1.3185    8.3310 H       1  UNL1        0.0000
    104 H          -0.1131   -4.1066    6.3229 H       1  UNL1        0.0000
    105 H           4.5770   10.5258    5.1167 H       1  UNL1        0.0000
    106 H           4.6857    2.9718    6.7535 H       1  UNL1        0.0000
    107 H          -0.0418    3.5473    8.2267 H       1  UNL1        0.0000
    108 H          -3.7937   -1.9001    6.6381 H       1  UNL1        0.0000
    109 H           1.2848    1.6206    9.0395 H       1  UNL1        0.0000
    110 H           1.0026    5.1936    6.6355 H       1  UNL1        0.0000
    111 H           5.8897    8.6503    4.1589 H       1  UNL1        0.0000
    112 H          -7.7282    8.9007    4.6697 H      54  UNL54       0.0000
    113 C           2.9042    4.1781    6.6081 C.ar    1  UNL1        0.0000
    114 C           1.7416    2.3424    8.3638 C.ar    1  UNL1        0.0000
    115 C           6.3659    9.3483    4.8466 C.ar    1  UNL1        0.0000
    116 C          -1.8901   -2.9095    6.5651 C.2     1  UNL1        0.0000
    117 C           1.5700    4.3491    7.0216 C.ar    1  UNL1        0.0000
    118 C           3.0733    2.1724    7.9632 C.ar    1  UNL1        0.0000
    119 C           5.6271   10.4119    5.3820 C.ar    1  UNL1        0.0000
    120 C          -1.1552   -3.9852    6.0335 C.3     1  UNL1        0.0000
    121 C           7.7146    9.1779    5.1834 C.ar    1  UNL1        0.0000
    122 C          -3.2423   -2.7368    6.2144 C.3     1  UNL1        0.0000
    123 C           3.6572    3.0902    7.0884 C.ar    1  UNL1        0.0000
    124 C           0.9915    3.4319    7.9015 C.ar    1  UNL1        0.0000
    125 H           0.0801    5.1520   12.5170 H       4  UNL4        0.0000
    126 H           1.6314    3.7570   10.6621 H       4  UNL4        0.0000
    127 C           0.8747    4.4296   12.6539 C.2     4  UNL4        0.0000
    128 H           4.2564    3.5156   10.3864 H       4  UNL4        0.0000
    129 C           1.6371    3.7462   11.7449 C.2     4  UNL4        0.0000
    130 H           0.2235    5.4440   15.0434 H       4  UNL4        0.0000
    131 N           1.2900    4.0366   13.9142 N.pl3   4  UNL4        0.0000
    132 C           4.6626    2.9361   11.2252 C.3     4  UNL4        0.0000
    133 H           5.1355    3.6240   11.9372 H       4  UNL4        0.0000
    134 C           0.7107    4.4760   15.1910 C.3     4  UNL4        0.0000
    135 N           2.5063    2.9455   12.4656 N.pl3   4  UNL4        0.0000
    136 H          -0.0303    3.7391   15.5268 H       4  UNL4        0.0000
    137 H           5.4318    2.2573   10.8291 H       4  UNL4        0.0000
    138 C           2.2788    3.1323   13.7793 C.3     4  UNL4        0.0000
    139 C           3.5779    2.1007   11.8981 C.3     4  UNL4        0.0000
    140 H           3.1132    1.3918   11.1998 H       4  UNL4        0.0000
    141 H           1.5074    4.5714   15.9350 H       4  UNL4        0.0000
    142 H           2.7992    2.6359   14.5895 H       4  UNL4        0.0000
    143 H           3.9819    1.5185   12.7328 H       4  UNL4        0.0000
    144 TI         -7.1680   -5.0094   24.3567 Ti      1  UNL1        0.0000
    145 TI          3.6625   -2.1282   14.9919 Ti      1  UNL1        0.0000
    146 TI         -3.0713   -8.9456   22.5367 Ti      1  UNL1        0.0000
    147 TI         -1.5601    0.2165   16.7637 Ti      1  UNL1        0.0000
    148 TI         -2.5587    1.8948   14.8593 Ti      1  UNL1        0.0000
    149 TI         -1.1831   -9.2000   24.4901 Ti      1  UNL1        0.0000
    150 TI         -6.2188   -6.7453   22.4652 Ti      1  UNL1        0.0000
    151 TI          1.6747   -1.8257   16.8393 Ti      1  UNL1        0.0000
    152 H          -6.6661   -1.1124   24.1372 H       1  UNL1        0.0000
    153 H           4.4713   -6.0343   15.3125 H       1  UNL1        0.0000
    154 H         -11.1279   -5.7661   23.9742 H       1  UNL1        0.0000
    155 H           7.0447   -0.1239   15.1925 H       1  UNL1        0.0000
    156 H          -0.2075  -13.2345   24.1041 H       1  UNL1        0.0000
    157 H          -6.6172    1.3049   15.1813 H       1  UNL1        0.0000
    158 H          -2.0642    0.2580   12.9862 H       1  UNL1        0.0000
    159 H           1.7870   -2.3709   13.2919 H       1  UNL1        0.0000
    160 H          -0.6732   -9.8671   18.9790 H       1  UNL1        0.0000
    161 H          -3.2835    2.0535   20.3826 H       1  UNL1        0.0000
    162 H         -10.2914   -3.3567   22.1093 H       1  UNL1        0.0000
    163 H           6.4173   -4.2126   17.2979 H       1  UNL1        0.0000
    164 H          -7.9903   -4.8041   18.7754 H       1  UNL1        0.0000
    165 H          -5.6587    3.7227   17.2125 H       1  UNL1        0.0000
    166 H          -2.1664    4.9976   15.7147 H       1  UNL1        0.0000
    167 H           4.3135   -8.0531   16.5150 H      54  UNL54       0.0000
    168 H           0.5325   -0.1034   15.4250 H       1  UNL1        0.0000
    169 H          -4.1520   -7.0972   23.8303 H       1  UNL1        0.0000
    170 H           3.0517   -7.2651   22.8797 H       1  UNL1        0.0000
    171 H           1.5705   -7.7342   23.6271 H       1  UNL1        0.0000
    172 H           3.6258   -2.8315   21.7808 H       1  UNL1        0.0000
    173 H           3.0561   -2.4729   20.1623 H       1  UNL1        0.0000
    174 H           2.5628  -12.2200   22.6897 H       1  UNL1        0.0000
    175 H           1.2837  -11.1194   23.1471 H       1  UNL1        0.0000
    176 C           4.2405   -2.8695   17.8554 C.3     1  UNL1        0.0000
    177 C          -8.1285   -4.7481   21.5096 C.3     1  UNL1        0.0000
    178 C          -0.4908   -9.9563   21.6120 C.3     1  UNL1        0.0000
    179 C          -3.4962    2.1870   17.7230 C.3     1  UNL1        0.0000
    180 C           5.1366   -3.4738   18.8506 C.ar    1  UNL1        0.0000
    181 C          -9.0604   -4.1230   20.5326 C.2     1  UNL1        0.0000
    182 C           0.4494  -10.5707   20.6648 C.2     1  UNL1        0.0000
    183 C          -4.3860    2.8338   18.7228 C.ar    1  UNL1        0.0000
    184 C           4.8878   -3.3989   20.2570 C.ar    1  UNL1        0.0000
    185 C          -8.8440   -4.2430   19.1446 C.3     1  UNL1        0.0000
    186 C           1.5789  -11.3310   21.1178 C.2     1  UNL1        0.0000
    187 C          -5.4808    3.6068   18.2779 C.ar    1  UNL1        0.0000
    188 C          -4.1315    2.6630   20.0777 C.ar    1  UNL1        0.0000
    189 C           0.2017  -10.4386   19.2809 C.3     1  UNL1        0.0000
    190 C           6.2702   -4.1728   18.3749 C.ar    1  UNL1        0.0000
    191 C         -10.1606   -3.4306   21.0313 C.2     1  UNL1        0.0000
    192 C           4.4523   -5.9552   13.1685 C.2     1  UNL1        0.0000
    193 C          -2.0174    5.8364   13.1935 C.ar    1  UNL1        0.0000
    194 C           6.9367   -0.1921   13.0424 C.ar    1  UNL1        0.0000
    195 C          -6.4216    1.3503   13.0231 C.2     1  UNL1        0.0000
    196 C          -0.8134   -2.1267   18.7283 C.3     1  UNL1        0.0000
    197 C          -5.5695   -9.2211   20.6464 C.2     1  UNL1        0.0000
    198 C           4.3165   -4.5004   13.1453 C.2     1  UNL1        0.0000
    199 C          -2.1102    4.4029   13.1560 C.3     1  UNL1        0.0000
    200 C           5.6389   -0.8089   13.0893 C.3     1  UNL1        0.0000
    201 C          -5.0193    1.7647   13.0475 C.2     1  UNL1        0.0000
    202 C           4.4917   -6.6243   14.3981 C.3     1  UNL1        0.0000
    203 C          -6.6552   -0.5240   25.0511 C.ar    1  UNL1        0.0000
    204 C           7.5921    0.0827   14.2764 C.ar    1  UNL1        0.0000
    205 C         -11.6894   -5.9454   24.8896 C.3     1  UNL1        0.0000
    206 C           2.9964   -6.9898   24.9041 C.ar    1  UNL1        0.0000
    207 C          -7.1188    1.1199   14.2355 C.3     1  UNL1        0.0000
    208 C          -0.1658  -13.7617   25.0532 C.3     1  UNL1        0.0000
    209 C          -2.0036    6.5876   14.4227 C.ar    1  UNL1        0.0000
    210 N          -1.9486    5.9887   15.6609 N.pl3   1  UNL1        0.0000
    211 N           2.4174   -7.1726   23.6651 N.pl3   1  UNL1        0.0000
    212 N           3.8069   -2.7526   20.7883 N.pl3   1  UNL1        0.0000
    213 N           1.9099  -11.4892   22.4352 N.pl3   1  UNL1        0.0000
    214 O           3.0642   -2.4644   18.2212 O.3     1  UNL1        0.0000
    215 O          -7.3595   -5.6989   21.1114 O.3     1  UNL1        0.0000
    216 O          -0.1093   -9.8319   22.8331 O.3     1  UNL1        0.0000
    217 O          -3.5621    2.6167   16.5234 O.3     1  UNL1        0.0000
    218 O          -2.7258    1.2298   18.1095 O.3     1  UNL1        0.0000
    219 O          -1.6612   -9.5879   21.2065 O.3     1  UNL1        0.0000
    220 O           4.6524   -2.7887   16.6436 O.3     1  UNL1        0.0000
    221 O          -8.1705   -4.3118   22.7094 O.3     1  UNL1        0.0000
    222 O           1.9799   -3.0436   15.6446 O.3     1  UNL1        0.0000
    223 O          -5.6663   -5.1850   23.2097 O.3     1  UNL1        0.0000
    224 O           2.9187   -0.7563   16.0946 O.3     1  UNL1        0.0000
    225 O          -7.4185   -6.9097   23.7024 O.3     1  UNL1        0.0000
    226 O          -2.8120  -10.1176   23.7971 O.3     1  UNL1        0.0000
    227 O          -1.0435    1.7778   16.0252 O.3     1  UNL1        0.0000
    228 O          -1.8580   -7.8561   23.3329 O.3     1  UNL1        0.0000
    229 O          -2.7498    0.0207   15.5078 O.3     1  UNL1        0.0000
    230 O           0.4077   -2.3065   18.3740 O.3     1  UNL1        0.0000
    231 O          -6.2271   -8.1861   21.0246 O.2     1  UNL1        0.0000
    232 O          -0.4408  -10.9718   25.0992 O.2     1  UNL1        0.0000
    233 O          -2.1933    3.7014   14.2512 O.3     1  UNL1        0.0000
    234 O           0.3614   -8.1837   25.0940 O.3     1  UNL1        0.0000
    235 O          -4.4292    1.8657   14.1911 O.2     1  UNL1        0.0000
    236 O          -4.4076   -9.5156   21.1042 O.2     1  UNL1        0.0000
    237 O          -1.5552   -1.2058   18.2349 O.3     1  UNL1        0.0000
    238 O           5.0996   -1.1091   14.2373 O.3     1  UNL1        0.0000
    239 O          -9.0548   -5.0695   25.0251 O.2     1  UNL1        0.0000
    240 O           4.3040   -3.8634   14.2667 O.2     1  UNL1        0.0000
    241 O          -6.7866   -3.2872   25.1064 O.3     1  UNL1        0.0000
    242 O           0.1717   -0.6521   16.1457 O.3     1  UNL1        0.0000
    243 O          -4.5302   -7.6559   23.1267 O.3     1  UNL1        0.0000
    244 O           2.6258   -1.8772   13.2129 O.3     1  UNL1        0.0000
    245 O          -1.9418    1.2248   13.0462 O.3     1  UNL1        0.0000
    246 H          -0.6722   -5.9207   21.4413 H       1  UNL1        0.0000
    247 H          -4.4257  -11.3458   19.4331 H       1  UNL1        0.0000
    248 H           0.2644    3.2866   18.2269 H       1  UNL1        0.0000
    249 H           0.3732   -4.2674   19.8637 H       1  UNL1        0.0000
    250 H          -4.3544   -3.6919   21.3370 H       1  UNL1        0.0000
    251 H          -8.1063   -9.1393   19.7483 H       1  UNL1        0.0000
    252 H          -3.0278   -5.6186   22.1497 H       1  UNL1        0.0000
    253 H          -3.3099   -2.0456   19.7458 H       1  UNL1        0.0000
    254 H           1.5772    1.4111   17.2691 H       1  UNL1        0.0000
    255 H         -12.0407    1.6615   17.7800 H      54  UNL54       0.0000
    256 C          -1.4083   -3.0611   19.7184 C.ar    1  UNL1        0.0000
    257 C          -2.5709   -4.8968   21.4741 C.ar    1  UNL1        0.0000
    258 C           2.0534    2.1091   17.9569 C.ar    1  UNL1        0.0000
    259 C          -6.2026  -10.1487   19.6754 C.2     1  UNL1        0.0000
    260 C          -2.7425   -2.8901   20.1319 C.ar    1  UNL1        0.0000
    261 C          -1.2392   -5.0668   21.0735 C.ar    1  UNL1        0.0000
    262 C           1.3145    3.1727   18.4922 C.ar    1  UNL1        0.0000
    263 C          -5.4677  -11.2244   19.1438 C.3     1  UNL1        0.0000
    264 C           3.4021    1.9387   18.2937 C.ar    1  UNL1        0.0000
    265 C          -7.5549   -9.9760   19.3247 C.3     1  UNL1        0.0000
    266 C          -0.6553   -4.1490   20.1986 C.ar    1  UNL1        0.0000
    267 C          -3.3210   -3.8073   21.0117 C.ar    1  UNL1        0.0000
    268 H          -4.2325   -2.0872   25.6273 H       7  UNL7        0.0000
    269 H          -2.6811   -3.4822   23.7724 H       7  UNL7        0.0000
    270 C          -3.4378   -2.8096   25.7642 C.2     7  UNL7        0.0000
    271 H          -0.0562   -3.7236   23.4967 H       7  UNL7        0.0000
    272 C          -2.6755   -3.4930   24.8552 C.2     7  UNL7        0.0000
    273 H          -4.0891   -1.7952   28.1536 H       7  UNL7        0.0000
    274 N          -3.0225   -3.2026   27.0245 N.pl3   7  UNL7        0.0000
    275 C           0.3500   -4.3031   24.3354 C.3     7  UNL7        0.0000
    276 H           0.8229   -3.6152   25.0474 H       7  UNL7        0.0000
    277 C          -3.6018   -2.7632   28.3013 C.3     7  UNL7        0.0000
    278 N          -1.8062   -4.2937   25.5759 N.pl3   7  UNL7        0.0000
    279 H          -4.3429   -3.5001   28.6371 H       7  UNL7        0.0000
    280 H           1.1192   -4.9819   23.9394 H       7  UNL7        0.0000
    281 C          -2.0337   -4.1069   26.8896 C.3     7  UNL7        0.0000
    282 C          -0.7346   -5.1385   25.0084 C.3     7  UNL7        0.0000
    283 H          -1.1993   -5.8474   24.3101 H       7  UNL7        0.0000
    284 H          -2.8051   -2.6678   29.0453 H       7  UNL7        0.0000
    285 H          -1.5133   -4.6033   27.6998 H       7  UNL7        0.0000
    286 H          -0.3306   -5.7207   25.8431 H       7  UNL7        0.0000
    287 TI        -11.4805  -12.2486   37.4669 Ti      8  UNL8        0.0000
    288 TI         -0.6500   -9.3674   28.1021 Ti      1  UNL1        0.0000
    289 TI         -7.3838  -16.1848   35.6470 Ti      8  UNL8        0.0000
    290 TI         -5.8726   -7.0227   29.8739 Ti      1  UNL1        0.0000
    291 TI         -6.8712   -5.3444   27.9695 Ti      1  UNL1        0.0000
    292 TI         -5.4956  -16.4392   37.6003 Ti      8  UNL8        0.0000
    293 TI        -10.5313  -13.9845   35.5755 Ti      8  UNL8        0.0000
    294 TI         -2.6378   -9.0649   29.9496 Ti      1  UNL1        0.0000
    295 H         -10.9786   -8.3516   37.2475 H       1  UNL1        0.0000
    296 H           0.1588  -13.2735   28.4228 H       1  UNL1        0.0000
    297 H         -15.4404  -13.0053   37.0845 H       2  UNL2        0.0000
    298 H           2.7321   -7.3631   28.3028 H       1  UNL1        0.0000
    299 H          -4.5200  -20.4737   37.2144 H       4  UNL4        0.0000
    300 H         -10.9297   -5.9343   28.2916 H       1  UNL1        0.0000
    301 H          -6.3767   -6.9812   26.0965 H       1  UNL1        0.0000
    302 H          -2.5256   -9.6101   26.4022 H       1  UNL1        0.0000
    303 H          -4.9857  -17.1063   32.0892 H       8  UNL8        0.0000
    304 H          -7.5961   -5.1857   33.4929 H       1  UNL1        0.0000
    305 H         -14.6039  -10.5959   35.2196 H       8  UNL8        0.0000
    306 H           2.1047  -11.4518   30.4081 H       1  UNL1        0.0000
    307 H         -12.3028  -12.0433   31.8857 H       8  UNL8        0.0000
    308 H          -9.9713   -3.5165   30.3228 H       1  UNL1        0.0000
    309 H          -6.4790   -2.2416   28.8250 H       1  UNL1        0.0000
    310 H           0.0009  -15.2923   29.6253 H      54  UNL54       0.0000
    311 H          -3.7800   -7.3426   28.5353 H       1  UNL1        0.0000
    312 H          -8.4645  -14.3364   36.9406 H       8  UNL8        0.0000
    313 H          -1.2609  -14.5043   35.9900 H       3  UNL3        0.0000
    314 H          -2.7420  -14.9734   36.7373 H       3  UNL3        0.0000
    315 H          -0.6867  -10.0707   34.8911 H       1  UNL1        0.0000
    316 H          -1.2565   -9.7121   33.2726 H       1  UNL1        0.0000
    317 H          -1.7497  -19.4592   35.8000 H       8  UNL8        0.0000
    318 H          -3.0288  -18.3586   36.2574 H       8  UNL8        0.0000
    319 C          -0.0720  -10.1087   30.9657 C.3     1  UNL1        0.0000
    320 C         -12.4410  -11.9873   34.6199 C.3     8  UNL8        0.0000
    321 C          -4.8033  -17.1955   34.7222 C.3     8  UNL8        0.0000
    322 C          -7.8087   -5.0522   30.8333 C.3     1  UNL1        0.0000
    323 C           0.8240  -10.7130   31.9609 C.ar    1  UNL1        0.0000
    324 C         -13.3730  -11.3622   33.6429 C.2     8  UNL8        0.0000
    325 C          -3.8631  -17.8099   33.7751 C.2     8  UNL8        0.0000
    326 C          -8.6986   -4.4054   31.8331 C.ar    1  UNL1        0.0000
    327 C           0.5753  -10.6381   33.3673 C.ar    1  UNL1        0.0000
    328 C         -13.1566  -11.4822   32.2548 C.3     8  UNL8        0.0000
    329 C          -2.7337  -18.5702   34.2281 C.2     8  UNL8        0.0000
    330 C          -9.7933   -3.6324   31.3882 C.ar    1  UNL1        0.0000
    331 C          -8.4441   -4.5762   33.1880 C.ar    1  UNL1        0.0000
    332 C          -4.1108  -17.6778   32.3911 C.3     8  UNL8        0.0000
    333 C           1.9577  -11.4120   31.4851 C.ar    1  UNL1        0.0000
    334 C         -14.4731  -10.6698   34.1415 C.2     8  UNL8        0.0000
    335 C           0.1398  -13.1944   26.2787 C.2     1  UNL1        0.0000
    336 C          -6.3299   -1.4028   26.3037 C.ar    1  UNL1        0.0000
    337 C           2.6242   -7.4313   26.1527 C.ar    1  UNL1        0.0000
    338 C         -10.7341   -5.8889   26.1333 C.2     1  UNL1        0.0000
    339 C          -5.1259   -9.3659   31.8385 C.3     1  UNL1        0.0000
    340 C          -9.8820  -16.4603   33.7567 C.2     8  UNL8        0.0000
    341 C           0.0039  -11.7396   26.2555 C.2     1  UNL1        0.0000
    342 C          -6.4227   -2.8363   26.2662 C.3     1  UNL1        0.0000
    343 C           1.3264   -8.0481   26.1996 C.3     1  UNL1        0.0000
    344 C          -9.3318   -5.4745   26.1578 C.2     1  UNL1        0.0000
    345 C           0.1791  -13.8635   27.5084 C.3     1  UNL1        0.0000
    346 C         -10.9677   -7.7632   38.1614 C.3     1  UNL1        0.0000
    347 C           3.2795   -7.1565   27.3867 C.ar    1  UNL1        0.0000
    348 C         -16.0019  -13.1846   37.9999 C.3    10  UNL10       0.0000
    349 C          -1.3161  -14.2290   38.0143 C.3     3  UNL3        0.0000
    350 C         -11.4313   -6.1193   27.3458 C.3     1  UNL1        0.0000
    351 C          -4.4784  -21.0009   38.1635 C.3    11  UNL11       0.0000
    352 C          -6.3162   -0.6516   27.5330 C.ar    1  UNL1        0.0000
    353 N          -6.2611   -1.2505   28.7712 N.pl3   1  UNL1        0.0000
    354 N          -1.8952  -14.4118   36.7754 N.3     3  UNL3        0.0000
    355 N          -0.5056   -9.9918   33.8986 N.pl3   1  UNL1        0.0000
    356 N          -2.4027  -18.7284   35.5455 N.pl3   8  UNL8        0.0000
    357 O          -1.2483   -9.7036   31.3315 O.3     1  UNL1        0.0000
    358 O         -11.6721  -12.9381   34.2216 O.3     8  UNL8        0.0000
    359 O          -4.4219  -17.0711   35.9434 O.3     8  UNL8        0.0000
    360 O          -7.8746   -4.6225   29.6337 O.3     1  UNL1        0.0000
    361 O          -7.0383   -6.0094   31.2197 O.3     1  UNL1        0.0000
    362 O          -5.9737  -16.8271   34.3167 O.3     8  UNL8        0.0000
    363 O           0.3399  -10.0279   29.7539 O.3     1  UNL1        0.0000
    364 O         -12.4831  -11.5510   35.8196 O.3     8  UNL8        0.0000
    365 O          -2.3326  -10.2828   28.7549 O.3     1  UNL1        0.0000
    366 O          -9.9788  -12.4242   36.3200 O.3     8  UNL8        0.0000
    367 O          -1.3938   -7.9955   29.2049 O.3     1  UNL1        0.0000
    368 O         -11.7310  -14.1489   36.8127 O.3     8  UNL8        0.0000
    369 O          -7.1245  -17.3568   36.9074 O.3     8  UNL8        0.0000
    370 O          -5.3561   -5.4614   29.1355 O.3     1  UNL1        0.0000
    371 O          -6.1706  -15.0953   36.4432 O.3     8  UNL8        0.0000
    372 O          -7.0623   -7.2185   28.6180 O.3     1  UNL1        0.0000
    373 O          -3.9048   -9.5458   31.4843 O.3     1  UNL1        0.0000
    374 O         -10.5397  -15.4253   34.1349 O.2     8  UNL8        0.0000
    375 O          -4.7533  -18.2110   38.2094 O.3     8  UNL8        0.0000
    376 O          -6.5058   -3.5378   27.3614 O.3     1  UNL1        0.0000
    377 O          -3.9511  -15.4229   38.2043 O.3     8  UNL8        0.0000
    378 O          -8.7417   -5.3735   27.3014 O.2     1  UNL1        0.0000
    379 O          -8.7202  -16.7548   34.2145 O.2     8  UNL8        0.0000
    380 O          -5.8677   -8.4450   31.3452 O.3     1  UNL1        0.0000
    381 O           0.7870   -8.3483   27.3476 O.3     1  UNL1        0.0000
    382 O         -13.3673  -12.3087   38.1354 O.3     8  UNL8        0.0000
    383 O          -0.0085  -11.1026   27.3770 O.2     1  UNL1        0.0000
    384 O         -11.0991  -10.5264   38.2167 O.3     8  UNL8        0.0000
    385 O          -4.1408   -7.8913   29.2560 O.3     1  UNL1        0.0000
    386 O          -8.8428  -14.8951   36.2370 O.3     8  UNL8        0.0000
    387 O          -1.6867   -9.1165   26.3232 O.3     1  UNL1        0.0000
    388 O          -6.2544   -6.0144   26.1564 O.3     1  UNL1        0.0000
    389 H          -4.9847  -13.1599   34.5516 H       1  UNL1        0.0000
    390 H          -8.7382  -18.5850   32.5434 H       8  UNL8        0.0000
    391 H          -4.0481   -3.9526   31.3372 H       1  UNL1        0.0000
    392 H          -3.9393  -11.5066   32.9740 H       1  UNL1        0.0000
    393 H          -8.6669  -10.9312   34.4472 H       1  UNL1        0.0000
    394 H         -12.4188  -16.3785   32.8586 H       8  UNL8        0.0000
    395 H          -7.3403  -12.8578   35.2600 H       1  UNL1        0.0000
    396 H          -7.6224   -9.2848   32.8560 H       1  UNL1        0.0000
    397 H          -2.7353   -5.8281   30.3794 H       1  UNL1        0.0000
    398 H         -16.3532   -5.5777   30.8903 H      54  UNL54       0.0000
    399 C          -5.7208  -10.3003   32.8287 C.ar    1  UNL1        0.0000
    400 C          -6.8834  -12.1360   34.5844 C.ar    1  UNL1        0.0000
    401 C          -2.2591   -5.1301   31.0672 C.ar    1  UNL1        0.0000
    402 C         -10.5152  -17.3879   32.7857 C.2     8  UNL8        0.0000
    403 C          -7.0550  -10.1293   33.2422 C.ar    1  UNL1        0.0000
    404 C          -5.5518  -12.3060   34.1838 C.ar    1  UNL1        0.0000
    405 C          -2.9980   -4.0665   31.6025 C.ar    1  UNL1        0.0000
    406 C          -9.7802  -18.4636   32.2540 C.3     8  UNL8        0.0000
    407 C          -0.9105   -5.3005   31.4039 C.ar    1  UNL1        0.0000
    408 C         -11.8674  -17.2152   32.4349 C.3     8  UNL8        0.0000
    409 C          -4.9679  -11.3882   33.3089 C.ar    1  UNL1        0.0000
    410 C          -7.6336  -11.0465   34.1220 C.ar    1  UNL1        0.0000
    411 H          -8.5450   -9.3264   38.7376 H      13  UNL13       0.0000
    412 H          -6.9936  -10.7214   36.8827 H      13  UNL13       0.0000
    413 C          -7.7504  -10.0488   38.8745 C.2    13  UNL13       0.0000
    414 H          -4.3687  -10.9628   36.6070 H      13  UNL13       0.0000
    415 C          -6.9880  -10.7322   37.9655 C.2    13  UNL13       0.0000
    416 H          -8.4016   -9.0344   41.2639 H      13  UNL13       0.0000
    417 N          -7.3351  -10.4418   40.1347 N.pl3  13  UNL13       0.0000
    418 C          -3.9625  -11.5423   37.4457 C.3    13  UNL13       0.0000
    419 H          -3.4896  -10.8544   38.1577 H      13  UNL13       0.0000
    420 C          -7.9143  -10.0024   41.4116 C.3    13  UNL13       0.0000
    421 N          -6.1187  -11.5329   38.6862 N.pl3  13  UNL13       0.0000
    422 H          -8.6554  -10.7393   41.7474 H      13  UNL13       0.0000
    423 H          -3.1933  -12.2211   37.0497 H      13  UNL13       0.0000
    424 C          -6.3463  -11.3461   39.9998 C.3    13  UNL13       0.0000
    425 C          -5.0472  -12.3777   38.1186 C.3    13  UNL13       0.0000
    426 H          -5.5118  -13.0866   37.4204 H      13  UNL13       0.0000
    427 H          -7.1177   -9.9070   42.1555 H      13  UNL13       0.0000
    428 H          -5.8258  -11.8425   40.8101 H      13  UNL13       0.0000
    429 H          -4.6431  -12.9599   38.9534 H      13  UNL13       0.0000
    430 TI         -9.8774   16.6066   11.2464 Ti      1  UNL1        0.0000
    431 TI          0.9531   19.4878    1.8816 Ti      1  UNL1        0.0000
    432 TI         -5.7807   12.6704    9.4264 Ti      1  UNL1        0.0000
    433 TI         -4.2695   21.8325    3.6534 Ti      1  UNL1        0.0000
    434 TI         -5.2681   23.5108    1.7490 Ti      1  UNL1        0.0000
    435 TI         -3.8925   12.4160   11.3798 Ti      1  UNL1        0.0000
    436 TI         -8.9282   14.8707    9.3549 Ti      1  UNL1        0.0000
    437 TI         -1.0347   19.7903    3.7291 Ti      1  UNL1        0.0000
    438 H          -9.3755   20.5037   11.0269 H       1  UNL1        0.0000
    439 H           1.7619   15.5817    2.2023 H       1  UNL1        0.0000
    440 H         -13.8373   15.8499   10.8639 H       1  UNL1        0.0000
    441 H           4.3353   21.4921    2.0822 H       1  UNL1        0.0000
    442 H          -2.9169    8.3815   10.9939 H       1  UNL1        0.0000
    443 H          -9.3266   22.9209    2.0711 H       1  UNL1        0.0000
    444 H          -4.7736   21.8740   -0.1241 H       1  UNL1        0.0000
    445 H          -0.9224   19.2451    0.1817 H       1  UNL1        0.0000
    446 H          -3.3826   11.7489    5.8687 H       1  UNL1        0.0000
    447 H          -5.9929   23.6695    7.2723 H       1  UNL1        0.0000
    448 H         -13.0008   18.2593    8.9990 H       1  UNL1        0.0000
    449 H           3.7079   17.4035    4.1876 H       1  UNL1        0.0000
    450 H         -10.6997   16.8119    5.6652 H       1  UNL1        0.0000
    451 H          -8.3681   25.3387    4.1022 H       1  UNL1        0.0000
    452 H          -4.8758   26.6137    2.6045 H       1  UNL1        0.0000
    453 H           1.6041   13.5629    3.4048 H       1  UNL1        0.0000
    454 H          -2.1769   21.5126    2.3148 H       1  UNL1        0.0000
    455 H          -6.8614   14.5188   10.7200 H       1  UNL1        0.0000
    456 H           0.3423   14.3509    9.7694 H       1  UNL1        0.0000
    457 H          -1.1389   13.8818   10.5168 H       1  UNL1        0.0000
    458 H           0.9164   18.7845    8.6705 H       1  UNL1        0.0000
    459 H           0.3467   19.1431    7.0520 H       1  UNL1        0.0000
    460 H          -0.1466    9.3961    9.5794 H       1  UNL1        0.0000
    461 H          -1.4257   10.4966   10.0368 H       1  UNL1        0.0000
    462 C           1.5311   18.7466    4.7451 C.3     1  UNL1        0.0000
    463 C         -10.8379   16.8680    8.3994 C.3     1  UNL1        0.0000
    464 C          -3.2002   11.6597    8.5017 C.3     1  UNL1        0.0000
    465 C          -6.2056   23.8030    4.6127 C.3     1  UNL1        0.0000
    466 C           2.4272   18.1422    5.7403 C.ar    1  UNL1        0.0000
    467 C         -11.7698   17.4930    7.4223 C.2     1  UNL1        0.0000
    468 C          -2.2600   11.0453    7.5545 C.ar    1  UNL1        0.0000
    469 C          -7.0954   24.4498    5.6125 C.ar    1  UNL1        0.0000
    470 C           2.1784   18.2171    7.1467 C.ar    1  UNL1        0.0000
    471 C         -11.5534   17.3730    6.0343 C.3     1  UNL1        0.0000
    472 C          -1.1305   10.2850    8.0076 C.ar    1  UNL1        0.0000
    473 C          -8.1902   25.2228    5.1676 C.ar    1  UNL1        0.0000
    474 C          -6.8409   24.2791    6.9674 C.ar    1  UNL1        0.0000
    475 C          -2.5077   11.1775    6.1706 C.ar    1  UNL1        0.0000
    476 C           3.5608   17.4433    5.2646 C.ar    1  UNL1        0.0000
    477 C         -12.8700   18.1854    7.9210 C.2     1  UNL1        0.0000
    478 C           1.7429   15.6608    0.0582 C.2     1  UNL1        0.0000
    479 C          -4.7268   27.4524    0.0832 C.2     1  UNL1        0.0000
    480 C           4.2273   21.4239   -0.0678 C.2     1  UNL1        0.0000
    481 C          -9.1310   22.9664   -0.0872 C.2     1  UNL1        0.0000
    482 C          -3.5228   19.4893    5.6180 C.3     1  UNL1        0.0000
    483 C          -8.2789   12.3950    7.5361 C.2     1  UNL1        0.0000
    484 C           1.6071   17.1157    0.0350 C.2     1  UNL1        0.0000
    485 C          -4.8196   26.0189    0.0457 C.2     1  UNL1        0.0000
    486 C           2.9295   20.8071   -0.0210 C.2     1  UNL1        0.0000
    487 C          -7.7287   23.3807   -0.0628 C.2     1  UNL1        0.0000
    488 C           1.7823   14.9917    1.2879 C.3     1  UNL1        0.0000
    489 C          -9.3646   21.0921   11.9408 C.ar    1  UNL1        0.0000
    490 C           4.8826   21.6987    1.1661 C.3     1  UNL1        0.0000
    491 C         -14.3988   15.6706   11.7793 C.3     1  UNL1        0.0000
    492 C           0.2870   14.6262   11.7938 C.ar    1  UNL1        0.0000
    493 C          -9.8282   22.7359    1.1253 C.3     1  UNL1        0.0000
    494 C          -2.8752    7.8543   11.9429 C.ar    1  UNL1        0.0000
    495 C          -4.7130   28.2036    1.3125 C.3     1  UNL1        0.0000
    496 N          -4.6580   27.6047    2.5506 N.3     1  UNL1        0.0000
    497 N          -0.2920   14.4434   10.5548 N.pl3   1  UNL1        0.0000
    498 N           1.0975   18.8634    7.6780 N.pl3   1  UNL1        0.0000
    499 N          -0.7995   10.1268    9.3250 N.pl3   1  UNL1        0.0000
    500 O           0.3548   19.1516    5.1109 O.3     1  UNL1        0.0000
    501 O         -10.0689   15.9171    8.0011 O.3     1  UNL1        0.0000
    502 O          -2.8187   11.7842    9.7228 O.3     1  UNL1        0.0000
    503 O          -6.2715   24.2327    3.4131 O.3     1  UNL1        0.0000
    504 O          -5.4352   22.8458    4.9992 O.3     1  UNL1        0.0000
    505 O          -4.3706   12.0281    8.0962 O.3     1  UNL1        0.0000
    506 O           1.9430   18.8273    3.5334 O.3     1  UNL1        0.0000
    507 O         -10.8799   17.3042    9.5991 O.3     1  UNL1        0.0000
    508 O          -0.7295   18.5724    2.5344 O.3     1  UNL1        0.0000
    509 O          -8.3757   16.4310   10.0994 O.3     1  UNL1        0.0000
    510 O           0.2093   20.8597    2.9843 O.3     1  UNL1        0.0000
    511 O         -10.1279   14.7064   10.5921 O.3     1  UNL1        0.0000
    512 O          -5.5214   11.4984   10.6868 O.3     1  UNL1        0.0000
    513 O          -3.7529   23.3938    2.9149 O.3     1  UNL1        0.0000
    514 O          -4.5674   13.7599   10.2227 O.3     1  UNL1        0.0000
    515 O          -5.4592   21.6367    2.3975 O.3     1  UNL1        0.0000
    516 O          -2.3017   19.3095    5.2637 O.3     1  UNL1        0.0000
    517 O          -8.9365   13.4299    7.9143 O.2     1  UNL1        0.0000
    518 O          -3.1502   10.6442   11.9889 O.3     1  UNL1        0.0000
    519 O          -4.9027   25.3174    1.1409 O.2     1  UNL1        0.0000
    520 O          -2.3480   13.4324   11.9838 O.3     1  UNL1        0.0000
    521 O          -7.1386   23.4817    1.0808 O.2     1  UNL1        0.0000
    522 O          -7.1170   12.1004    7.9939 O.2     1  UNL1        0.0000
    523 O          -4.2646   20.4102    5.1246 O.3     1  UNL1        0.0000
    524 O           2.3902   20.5069    1.1270 O.2     1  UNL1        0.0000
    525 O         -11.7642   16.5465   11.9148 O.2     1  UNL1        0.0000
    526 O           1.5946   17.7526    1.1564 O.2     1  UNL1        0.0000
    527 O          -9.4960   18.3289   11.9961 O.3     1  UNL1        0.0000
    528 O          -2.5377   20.9639    3.0354 O.3     1  UNL1        0.0000
    529 O          -7.2396   13.9601   10.0165 O.3     1  UNL1        0.0000
    530 O          -0.0836   19.7388    0.1026 O.3     1  UNL1        0.0000
    531 O          -4.6512   22.8408   -0.0641 O.3     1  UNL1        0.0000
    532 H          -3.3816   15.6953    8.3310 H       1  UNL1        0.0000
    533 H          -7.1351   10.2702    6.3229 H       1  UNL1        0.0000
    534 H          -2.4450   24.9026    5.1167 H       1  UNL1        0.0000
    535 H          -2.3362   17.3487    6.7535 H       1  UNL1        0.0000
    536 H          -7.0638   17.9241    8.2267 H       1  UNL1        0.0000
    537 H         -10.8157   12.4767    6.6381 H       1  UNL1        0.0000
    538 H          -5.7372   15.9974    9.0395 H       1  UNL1        0.0000
    539 H          -6.0193   19.5704    6.6355 H       1  UNL1        0.0000
    540 H          -1.1322   23.0271    4.1589 H       1  UNL1        0.0000
    541 H         -14.7501   23.2775    4.6697 H      54  UNL54       0.0000
    542 C          -4.1177   18.5550    6.6081 C.ar    1  UNL1        0.0000
    543 C          -5.2803   16.7192    8.3638 C.ar    1  UNL1        0.0000
    544 C          -0.6560   23.7252    4.8466 C.ar    1  UNL1        0.0000
    545 C          -8.9120   11.4673    6.5651 C.2     1  UNL1        0.0000
    546 C          -5.4519   18.7260    7.0216 C.ar    1  UNL1        0.0000
    547 C          -3.9487   16.5492    7.9632 C.ar    1  UNL1        0.0000
    548 C          -1.3949   24.7887    5.3820 C.ar    1  UNL1        0.0000
    549 C          -8.1771   10.3916    6.0335 C.3     1  UNL1        0.0000
    550 C           0.6926   23.5547    5.1834 C.ar    1  UNL1        0.0000
    551 C         -10.2643   11.6400    6.2144 C.3     1  UNL1        0.0000
    552 C          -3.3647   17.4670    7.0884 C.ar    1  UNL1        0.0000
    553 C          -6.0304   17.8088    7.9015 C.ar    1  UNL1        0.0000
    554 H          -6.9419   19.5288   12.5170 H      15  UNL15       0.0000
    555 H          -5.3905   18.1338   10.6621 H      15  UNL15       0.0000
    556 C          -6.1472   18.8064   12.6539 C.2    15  UNL15       0.0000
    557 H          -2.7656   17.8924   10.3864 H      15  UNL15       0.0000
    558 C          -5.3849   18.1230   11.7449 C.2    15  UNL15       0.0000
    559 H          -6.7985   19.8208   15.0434 H      15  UNL15       0.0000
    560 N          -5.7319   18.4134   13.9142 N.pl3  15  UNL15       0.0000
    561 C          -2.3594   17.3129   11.2252 C.3    15  UNL15       0.0000
    562 H          -1.8865   18.0008   11.9372 H      15  UNL15       0.0000
    563 C          -6.3112   18.8528   15.1910 C.3    15  UNL15       0.0000
    564 N          -4.5156   17.3223   12.4656 N.pl3  15  UNL15       0.0000
    565 H          -7.0523   18.1159   15.5268 H      15  UNL15       0.0000
    566 H          -1.5902   16.6341   10.8291 H      15  UNL15       0.0000
    567 C          -4.7431   17.5092   13.7793 C.3    15  UNL15       0.0000
    568 C          -3.4440   16.4775   11.8981 C.3    15  UNL15       0.0000
    569 H          -3.9087   15.7686   11.1998 H      15  UNL15       0.0000
    570 H          -5.5145   18.9482   15.9350 H      15  UNL15       0.0000
    571 H          -4.2227   17.0127   14.5895 H      15  UNL15       0.0000
    572 H          -3.0400   15.8953   12.7328 H      15  UNL15       0.0000
    573 TI        -14.1899    9.3674   24.3567 Ti      1  UNL1        0.0000
    574 TI         -3.3594   12.2486   14.9919 Ti      1  UNL1        0.0000
    575 TI        -10.0932    5.4312   22.5367 Ti      1  UNL1        0.0000
    576 TI         -8.5820   14.5933   16.7637 Ti      1  UNL1        0.0000
    577 TI         -9.5806   16.2716   14.8593 Ti      1  UNL1        0.0000
    578 TI         -8.2050    5.1768   24.4901 Ti      1  UNL1        0.0000
    579 TI        -13.2407    7.6315   22.4652 Ti      1  UNL1        0.0000
    580 TI         -5.3472   12.5511   16.8393 Ti      1  UNL1        0.0000
    581 H         -13.6880   13.2645   24.1372 H       1  UNL1        0.0000
    582 H          -2.5506    8.3425   15.3125 H       1  UNL1        0.0000
    583 H         -18.1498    8.6107   23.9742 H       1  UNL1        0.0000
    584 H           0.0227   14.2529   15.1925 H       1  UNL1        0.0000
    585 H          -7.2294    1.1423   24.1041 H       1  UNL1        0.0000
    586 H         -13.6391   15.6817   15.1813 H       1  UNL1        0.0000
    587 H          -9.0861   14.6348   12.9862 H       1  UNL1        0.0000
    588 H          -5.2350   12.0059   13.2919 H       1  UNL1        0.0000
    589 H          -7.6951    4.5097   18.9790 H       1  UNL1        0.0000
    590 H         -10.3055   16.4303   20.3826 H       1  UNL1        0.0000
    591 H         -17.3133   11.0201   22.1093 H       1  UNL1        0.0000
    592 H          -0.6047   10.1643   17.2979 H       1  UNL1        0.0000
    593 H         -15.0122    9.5727   18.7754 H       1  UNL1        0.0000
    594 H         -12.6807   18.0995   17.2125 H       1  UNL1        0.0000
    595 H          -9.1884   19.3745   15.7147 H       1  UNL1        0.0000
    596 H          -2.7085    6.3237   16.5150 H       1  UNL1        0.0000
    597 H          -6.4894   14.2734   15.4250 H       1  UNL1        0.0000
    598 H         -11.1739    7.2796   23.8303 H       1  UNL1        0.0000
    599 H          -3.9703    7.1117   22.8797 H       1  UNL1        0.0000
    600 H          -5.4514    6.6426   23.6271 H       1  UNL1        0.0000
    601 H          -3.3962   11.5453   21.7808 H       1  UNL1        0.0000
    602 H          -3.9659   11.9039   20.1623 H       1  UNL1        0.0000
    603 H          -4.4591    2.1569   22.6897 H       1  UNL1        0.0000
    604 H          -5.7382    3.2574   23.1471 H       1  UNL1        0.0000
    605 C          -2.7814   11.5073   17.8554 C.3     1  UNL1        0.0000
    606 C         -15.1505    9.6288   21.5096 C.3     1  UNL1        0.0000
    607 C          -7.5127    4.4205   21.6120 C.3     1  UNL1        0.0000
    608 C         -10.5181   16.5638   17.7230 C.3     1  UNL1        0.0000
    609 C          -1.8854   10.9030   18.8506 C.ar    1  UNL1        0.0000
    610 C         -16.0824   10.2538   20.5326 C.2     1  UNL1        0.0000
    611 C          -6.5725    3.8061   20.6648 C.ar    1  UNL1        0.0000
    612 C         -11.4080   17.2106   18.7228 C.ar    1  UNL1        0.0000
    613 C          -2.1341   10.9779   20.2570 C.ar    1  UNL1        0.0000
    614 C         -15.8660   10.1338   19.1446 C.3     1  UNL1        0.0000
    615 C          -5.4431    3.0458   21.1178 C.ar    1  UNL1        0.0000
    616 C         -12.5027   17.9836   18.2779 C.ar    1  UNL1        0.0000
    617 C         -11.1535   17.0399   20.0777 C.ar    1  UNL1        0.0000
    618 C          -6.8202    3.9383   19.2809 C.ar    1  UNL1        0.0000
    619 C          -0.7517   10.2040   18.3749 C.ar    1  UNL1        0.0000
    620 C         -17.1825   10.9462   21.0313 C.2     1  UNL1        0.0000
    621 C          -2.5696    8.4216   13.1685 C.ar    1  UNL1        0.0000
    622 C          -9.0394   20.2132   13.1935 C.ar    1  UNL1        0.0000
    623 C          -0.0852   14.1847   13.0424 C.ar    1  UNL1        0.0000
    624 C         -13.4435   15.7272   13.0231 C.2     1  UNL1        0.0000
    625 C          -7.8353   12.2501   18.7283 C.3     1  UNL1        0.0000
    626 C         -12.5914    5.1558   20.6464 C.2     1  UNL1        0.0000
    627 C          -2.7055    9.8765   13.1453 C.3     1  UNL1        0.0000
    628 C          -9.1321   18.7797   13.1560 C.3     1  UNL1        0.0000
    629 C          -1.3830   13.5679   13.0893 C.3     1  UNL1        0.0000
    630 C         -12.0412   16.1415   13.0475 C.2     1  UNL1        0.0000
    631 C          -2.5303    7.7525   14.3981 C.ar    1  UNL1        0.0000
    632 C         -13.6771   13.8529   25.0511 C.ar    1  UNL1        0.0000
    633 C           0.5701   14.4595   14.2764 C.ar    1  UNL1        0.0000
    634 C         -18.7113    8.4314   24.8896 C.3     1  UNL1        0.0000
    635 C          -4.0255    7.3870   24.9041 C.ar    1  UNL1        0.0000
    636 C         -14.1407   15.4967   14.2355 C.3     1  UNL1        0.0000
    637 C          -7.1878    0.6151   25.0532 C.ar    1  UNL1        0.0000
    638 C          -9.0256   20.9644   14.4227 C.ar    1  UNL1        0.0000
    639 N          -8.9705   20.3655   15.6609 N.pl3   1  UNL1        0.0000
    640 N          -4.6046    7.2042   23.6651 N.pl3   1  UNL1        0.0000
    641 N          -3.2150   11.6242   20.7883 N.pl3   1  UNL1        0.0000
    642 N          -5.1121    2.8876   22.4352 N.pl3   1  UNL1        0.0000
    643 O          -3.9577   11.9124   18.2212 O.3     1  UNL1        0.0000
    644 O         -14.3815    8.6779   21.1114 O.3     1  UNL1        0.0000
    645 O          -7.1313    4.5450   22.8331 O.3     1  UNL1        0.0000
    646 O         -10.5840   16.9935   16.5234 O.3     1  UNL1        0.0000
    647 O          -9.7477   15.6066   18.1095 O.3     1  UNL1        0.0000
    648 O          -8.6831    4.7889   21.2065 O.3     1  UNL1        0.0000
    649 O          -2.3695   11.5881   16.6436 O.3     1  UNL1        0.0000
    650 O         -15.1925   10.0650   22.7094 O.3     1  UNL1        0.0000
    651 O          -5.0420   11.3332   15.6446 O.3     1  UNL1        0.0000
    652 O         -12.6882    9.1918   23.2097 O.3     1  UNL1        0.0000
    653 O          -4.1032   13.6205   16.0946 O.3     1  UNL1        0.0000
    654 O         -14.4404    7.4672   23.7024 O.3     1  UNL1        0.0000
    655 O          -9.8339    4.2592   23.7971 O.3     1  UNL1        0.0000
    656 O          -8.0655   16.1546   16.0252 O.3     1  UNL1        0.0000
    657 O          -8.8800    6.5207   23.3329 O.3     1  UNL1        0.0000
    658 O          -9.7717   14.3975   15.5078 O.3     1  UNL1        0.0000
    659 O          -6.6142   12.0703   18.3740 O.3     1  UNL1        0.0000
    660 O         -13.2491    6.1907   21.0246 O.2     1  UNL1        0.0000
    661 O          -7.4627    3.4050   25.0992 O.3     1  UNL1        0.0000
    662 O          -9.2152   18.0782   14.2512 O.3     1  UNL1        0.0000
    663 O          -6.6605    6.1932   25.0940 O.3     1  UNL1        0.0000
    664 O         -11.4511   16.2425   14.1911 O.2     1  UNL1        0.0000
    665 O         -11.4296    4.8612   21.1042 O.2     1  UNL1        0.0000
    666 O          -8.5771   13.1710   18.2349 O.3     1  UNL1        0.0000
    667 O          -1.9224   13.2677   14.2373 O.3     1  UNL1        0.0000
    668 O         -16.0767    9.3073   25.0251 O.2     1  UNL1        0.0000
    669 O          -2.7179   10.5134   14.2667 O.3     1  UNL1        0.0000
    670 O         -13.8085   11.0897   25.1064 O.3     1  UNL1        0.0000
    671 O          -6.8502   13.7247   16.1457 O.3     1  UNL1        0.0000
    672 O         -11.5522    6.7209   23.1267 O.3     1  UNL1        0.0000
    673 O          -4.3961   12.4996   13.2129 O.3     1  UNL1        0.0000
    674 O          -8.9638   15.6016   13.0462 O.3     1  UNL1        0.0000
    675 H          -7.6941    8.4561   21.4413 H       1  UNL1        0.0000
    676 H         -11.4476    3.0310   19.4331 H       1  UNL1        0.0000
    677 H          -6.7575   17.6634   18.2269 H       1  UNL1        0.0000
    678 H          -6.6487   10.1094   19.8637 H       1  UNL1        0.0000
    679 H         -11.3763   10.6849   21.3370 H       1  UNL1        0.0000
    680 H         -15.1282    5.2375   19.7483 H       1  UNL1        0.0000
    681 H         -10.0497    8.7582   22.1497 H       1  UNL1        0.0000
    682 H         -10.3319   12.3312   19.7458 H       1  UNL1        0.0000
    683 H          -5.4447   15.7879   17.2691 H       1  UNL1        0.0000
    684 H         -19.0626   16.0383   17.7800 H      54  UNL54       0.0000
    685 C          -8.4302   11.3158   19.7184 C.ar    1  UNL1        0.0000
    686 C          -9.5928    9.4800   21.4741 C.ar    1  UNL1        0.0000
    687 C          -4.9685   16.4860   17.9569 C.ar    1  UNL1        0.0000
    688 C         -13.2246    4.2281   19.6754 C.2     1  UNL1        0.0000
    689 C          -9.7644   11.4867   20.1319 C.ar    1  UNL1        0.0000
    690 C          -8.2612    9.3100   21.0735 C.ar    1  UNL1        0.0000
    691 C          -5.7074   17.5495   18.4922 C.ar    1  UNL1        0.0000
    692 C         -12.4896    3.1524   19.1438 C.3     1  UNL1        0.0000
    693 C          -3.6199   16.3155   18.2937 C.ar    1  UNL1        0.0000
    694 C         -14.5768    4.4008   19.3247 C.3     1  UNL1        0.0000
    695 C          -7.6773   10.2278   20.1986 C.ar    1  UNL1        0.0000
    696 C         -10.3430   10.5696   21.0117 C.ar    1  UNL1        0.0000
    697 H         -11.2544   12.2896   25.6273 H      17  UNL17       0.0000
    698 H          -9.7030   10.8946   23.7724 H      17  UNL17       0.0000
    699 C         -10.4598   11.5672   25.7642 C.2    17  UNL17       0.0000
    700 H          -7.0781   10.6532   23.4967 H      17  UNL17       0.0000
    701 C          -9.6974   10.8838   24.8552 C.2    17  UNL17       0.0000
    702 H         -11.1110   12.5816   28.1536 H      17  UNL17       0.0000
    703 N         -10.0445   11.1742   27.0245 N.pl3  17  UNL17       0.0000
    704 C          -6.6719   10.0737   24.3354 C.3    17  UNL17       0.0000
    705 H          -6.1990   10.7616   25.0474 H      17  UNL17       0.0000
    706 C         -10.6237   11.6136   28.3013 C.3    17  UNL17       0.0000
    707 N          -8.8281   10.0831   25.5759 N.pl3  17  UNL17       0.0000
    708 H         -11.3648   10.8767   28.6371 H      17  UNL17       0.0000
    709 H          -5.9027    9.3949   23.9394 H      17  UNL17       0.0000
    710 C          -9.0557   10.2700   26.8896 C.3    17  UNL17       0.0000
    711 C          -7.7566    9.2383   25.0084 C.3    17  UNL17       0.0000
    712 H          -8.2212    8.5294   24.3101 H      17  UNL17       0.0000
    713 H          -9.8271   11.7090   29.0453 H      17  UNL17       0.0000
    714 H          -8.5352    9.7735   27.6998 H      17  UNL17       0.0000
    715 H          -7.3525    8.6561   25.8431 H      17  UNL17       0.0000
    716 TI        -18.5024    2.1282   37.4669 Ti      1  UNL1        0.0000
    717 TI         -7.6720    5.0094   28.1021 Ti      1  UNL1        0.0000
    718 TI        -14.4057   -1.8080   35.6470 Ti      1  UNL1        0.0000
    719 TI        -12.8946    7.3541   29.8739 Ti      1  UNL1        0.0000
    720 TI        -13.8931    9.0324   27.9695 Ti      1  UNL1        0.0000
    721 TI        -12.5175   -2.0624   37.6003 Ti      1  UNL1        0.0000
    722 TI        -17.5532    0.3923   35.5755 Ti      1  UNL1        0.0000
    723 TI         -9.6598    5.3119   29.9496 Ti      1  UNL1        0.0000
    724 H         -18.0006    6.0253   37.2475 H       5  UNL5        0.0000
    725 H          -6.8632    1.1033   28.4228 H       1  UNL1        0.0000
    726 H         -22.4623    1.3715   37.0845 H       6  UNL6        0.0000
    727 H          -4.2898    7.0137   28.3028 H       1  UNL1        0.0000
    728 H         -11.5419   -6.0969   37.2144 H       1  UNL1        0.0000
    729 H         -17.9517    8.4425   28.2916 H       1  UNL1        0.0000
    730 H         -13.3987    7.3956   26.0965 H       1  UNL1        0.0000
    731 H          -9.5475    4.7667   26.4022 H       1  UNL1        0.0000
    732 H         -12.0076   -2.7295   32.0892 H       1  UNL1        0.0000
    733 H         -14.6180    9.1911   33.4929 H       1  UNL1        0.0000
    734 H         -21.6259    3.7809   35.2196 H       1  UNL1        0.0000
    735 H          -4.9172    2.9251   30.4081 H       1  UNL1        0.0000
    736 H         -19.3247    2.3335   31.8857 H       1  UNL1        0.0000
    737 H         -16.9932   10.8603   30.3228 H       1  UNL1        0.0000
    738 H         -13.5009   12.1352   28.8250 H       1  UNL1        0.0000
    739 H          -7.0210   -0.9155   29.6253 H       1  UNL1        0.0000
    740 H         -10.8019    7.0342   28.5353 H       1  UNL1        0.0000
    741 H         -15.4864    0.0404   36.9406 H       1  UNL1        0.0000
    742 H          -8.2828   -0.1275   35.9900 H       7  UNL7        0.0000
    743 H          -9.7639   -0.5966   36.7373 H       7  UNL7        0.0000
    744 H          -7.7087    4.3061   34.8911 H       1  UNL1        0.0000
    745 H          -8.2784    4.6647   33.2726 H       1  UNL1        0.0000
    746 H          -8.7716   -5.0823   35.8000 H       1  UNL1        0.0000
    747 H         -10.0508   -3.9818   36.2574 H       1  UNL1        0.0000
    748 C          -7.0939    4.2681   30.9657 C.3     1  UNL1        0.0000
    749 C         -19.4630    2.3896   34.6199 C.3     1  UNL1        0.0000
    750 C         -11.8252   -2.8187   34.7222 C.3     1  UNL1        0.0000
    751 C         -14.8307    9.3246   30.8333 C.3     1  UNL1        0.0000
    752 C          -6.1979    3.6638   31.9609 C.ar    1  UNL1        0.0000
    753 C         -20.3949    3.0146   33.6429 C.2     1  UNL1        0.0000
    754 C         -10.8850   -3.4331   33.7751 C.ar    1  UNL1        0.0000
    755 C         -15.7205    9.9714   31.8331 C.ar    1  UNL1        0.0000
    756 C          -6.4467    3.7387   33.3673 C.ar    1  UNL1        0.0000
    757 C         -20.1785    2.8946   32.2548 C.3     1  UNL1        0.0000
    758 C          -9.7556   -4.1934   34.2281 C.ar    1  UNL1        0.0000
    759 C         -16.8152   10.7444   31.3882 C.ar    1  UNL1        0.0000
    760 C         -15.4660    9.8007   33.1880 C.ar    1  UNL1        0.0000
    761 C         -11.1328   -3.3009   32.3911 C.ar    1  UNL1        0.0000
    762 C          -5.0642    2.9648   31.4851 C.ar    1  UNL1        0.0000
    763 C         -21.4951    3.7070   34.1415 C.2     1  UNL1        0.0000
    764 C          -6.8822    1.1824   26.2787 C.ar    1  UNL1        0.0000
    765 C         -13.3519   12.9740   26.3037 C.ar    1  UNL1        0.0000
    766 C          -4.3977    6.9455   26.1527 C.ar    1  UNL1        0.0000
    767 C         -17.7561    8.4880   26.1333 C.2     1  UNL1        0.0000
    768 C         -12.1478    5.0109   31.8385 C.3     1  UNL1        0.0000
    769 C         -16.9039   -2.0834   33.7567 C.2     1  UNL1        0.0000
    770 C          -7.0180    2.6373   26.2555 C.3     1  UNL1        0.0000
    771 C         -13.4446   11.5405   26.2662 C.3     1  UNL1        0.0000
    772 C          -5.6956    6.3287   26.1996 C.3     1  UNL1        0.0000
    773 C         -16.3537    8.9023   26.1578 C.2     1  UNL1        0.0000
    774 C          -6.8428    0.5133   27.5084 C.ar    1  UNL1        0.0000
    775 C         -17.9896    6.6137   38.1614 C.3     5  UNL5        0.0000
    776 C          -3.7424    7.2203   27.3867 C.ar    1  UNL1        0.0000
    777 C         -23.0238    1.1922   37.9999 C.3    18  UNL18       0.0000
    778 C          -8.3381    0.1478   38.0143 C.3     7  UNL7        0.0000
    779 C         -18.4532    8.2575   27.3458 C.3     1  UNL1        0.0000
    780 C         -11.5003   -6.6241   38.1635 C.3     1  UNL1        0.0000
    781 C         -13.3381   13.7252   27.5330 C.ar    1  UNL1        0.0000
    782 N         -13.2830   13.1263   28.7712 N.pl3   1  UNL1        0.0000
    783 N          -8.9171   -0.0350   36.7754 N.3     7  UNL7        0.0000
    784 N          -7.5276    4.3850   33.8986 N.pl3   1  UNL1        0.0000
    785 N          -9.4246   -4.3516   35.5455 N.pl3   1  UNL1        0.0000
    786 O          -8.2703    4.6732   31.3315 O.3     1  UNL1        0.0000
    787 O         -18.6940    1.4387   34.2216 O.3     1  UNL1        0.0000
    788 O         -11.4438   -2.6943   35.9434 O.3     1  UNL1        0.0000
    789 O         -14.8965    9.7543   29.6337 O.3     1  UNL1        0.0000
    790 O         -14.0602    8.3674   31.2197 O.3     1  UNL1        0.0000
    791 O         -12.9957   -2.4503   34.3167 O.3     1  UNL1        0.0000
    792 O          -6.6821    4.3489   29.7539 O.3     1  UNL1        0.0000
    793 O         -19.5050    2.8258   35.8196 O.3     1  UNL1        0.0000
    794 O          -9.3546    4.0940   28.7549 O.3     1  UNL1        0.0000
    795 O         -17.0008    1.9526   36.3200 O.3     1  UNL1        0.0000
    796 O          -8.4158    6.3813   29.2049 O.3     1  UNL1        0.0000
    797 O         -18.7530    0.2280   36.8127 O.3     1  UNL1        0.0000
    798 O         -14.1464   -2.9800   36.9074 O.3     1  UNL1        0.0000
    799 O         -12.3780    8.9154   29.1355 O.3     1  UNL1        0.0000
    800 O         -13.1925   -0.7185   36.4432 O.3     1  UNL1        0.0000
    801 O         -14.0842    7.1583   28.6180 O.3     1  UNL1        0.0000
    802 O         -10.9267    4.8311   31.4843 O.3     1  UNL1        0.0000
    803 O         -17.5616   -1.0485   34.1349 O.2     1  UNL1        0.0000
    804 O         -11.7752   -3.8342   38.2094 O.3     1  UNL1        0.0000
    805 O         -13.5277   10.8390   27.3614 O.3     1  UNL1        0.0000
    806 O         -10.9731   -1.0460   38.2043 O.3     1  UNL1        0.0000
    807 O         -15.7637    9.0033   27.3014 O.2     1  UNL1        0.0000
    808 O         -15.7421   -2.3780   34.2145 O.2     1  UNL1        0.0000
    809 O         -12.8897    5.9318   31.3452 O.3     1  UNL1        0.0000
    810 O          -6.2349    6.0285   27.3476 O.3     1  UNL1        0.0000
    811 O         -20.3892    2.0681   38.1354 O.3     1  UNL1        0.0000
    812 O          -7.0305    3.2742   27.3770 O.3     1  UNL1        0.0000
    813 O         -18.1210    3.8505   38.2167 O.3     1  UNL1        0.0000
    814 O         -11.1628    6.4855   29.2560 O.3     1  UNL1        0.0000
    815 O         -15.8647   -0.5183   36.2370 O.3     1  UNL1        0.0000
    816 O          -8.7087    5.2604   26.3232 O.3     1  UNL1        0.0000
    817 O         -13.2763    8.3624   26.1564 O.3     1  UNL1        0.0000
    818 H         -12.0066    1.2169   34.5516 H       1  UNL1        0.0000
    819 H         -15.7601   -4.2082   32.5434 H       1  UNL1        0.0000
    820 H         -11.0700   10.4242   31.3372 H       1  UNL1        0.0000
    821 H         -10.9613    2.8702   32.9740 H       1  UNL1        0.0000
    822 H         -15.6888    3.4457   34.4472 H       1  UNL1        0.0000
    823 H         -19.4407   -2.0017   32.8586 H       1  UNL1        0.0000
    824 H         -14.3622    1.5190   35.2600 H       1  UNL1        0.0000
    825 H         -14.6444    5.0920   32.8560 H       1  UNL1        0.0000
    826 H          -9.7573    8.5487   30.3794 H       1  UNL1        0.0000
    827 H         -23.3752    8.7991   30.8903 H      54  UNL54       0.0000
    828 C         -12.7428    4.0766   32.8287 C.ar    1  UNL1        0.0000
    829 C         -13.9054    2.2408   34.5844 C.ar    1  UNL1        0.0000
    830 C          -9.2811    9.2468   31.0672 C.ar    1  UNL1        0.0000
    831 C         -17.5371   -3.0111   32.7857 C.2     1  UNL1        0.0000
    832 C         -14.0770    4.2475   33.2422 C.ar    1  UNL1        0.0000
    833 C         -12.5737    2.0708   34.1838 C.ar    1  UNL1        0.0000
    834 C         -10.0199   10.3103   31.6025 C.ar    1  UNL1        0.0000
    835 C         -16.8021   -4.0868   32.2540 C.3     1  UNL1        0.0000
    836 C          -7.9324    9.0763   31.4039 C.ar    1  UNL1        0.0000
    837 C         -18.8893   -2.8384   32.4349 C.3     1  UNL1        0.0000
    838 C         -11.9898    2.9886   33.3089 C.ar    1  UNL1        0.0000
    839 C         -14.6555    3.3304   34.1220 C.ar    1  UNL1        0.0000
    840 H         -15.5669    5.0504   38.7376 H      20  UNL20       0.0000
    841 H         -14.0156    3.6554   36.8827 H      20  UNL20       0.0000
    842 C         -14.7723    4.3280   38.8745 C.2    20  UNL20       0.0000
    843 H         -11.3906    3.4140   36.6070 H      20  UNL20       0.0000
    844 C         -14.0099    3.6446   37.9655 C.2    20  UNL20       0.0000
    845 H         -15.4235    5.3424   41.2639 H      20  UNL20       0.0000
    846 N         -14.3570    3.9350   40.1347 N.pl3  20  UNL20       0.0000
    847 C         -10.9844    2.8345   37.4457 C.3    20  UNL20       0.0000
    848 H         -10.5115    3.5224   38.1577 H      20  UNL20       0.0000
    849 C         -14.9363    4.3744   41.4116 C.3    20  UNL20       0.0000
    850 N         -13.1407    2.8439   38.6862 N.pl3  20  UNL20       0.0000
    851 H         -15.6773    3.6375   41.7474 H      20  UNL20       0.0000
    852 H         -10.2152    2.1557   37.0497 H      20  UNL20       0.0000
    853 C         -13.3682    3.0308   39.9998 C.3    20  UNL20       0.0000
    854 C         -12.0691    1.9991   38.1186 C.3    20  UNL20       0.0000
    855 H         -12.5338    1.2902   37.4204 H      20  UNL20       0.0000
    856 H         -14.1396    4.4698   42.1555 H      20  UNL20       0.0000
    857 H         -12.8478    2.5343   40.8101 H      20  UNL20       0.0000
    858 H         -11.6651    1.4169   38.9534 H      20  UNL20       0.0000
    859 TI        -16.8993   30.9834   11.2464 Ti      1  UNL1        0.0000
    860 TI         -6.0688   33.8646    1.8816 Ti      1  UNL1        0.0000
    861 TI        -12.8026   27.0472    9.4264 Ti      1  UNL1        0.0000
    862 TI        -11.2914   36.2093    3.6534 Ti      1  UNL1        0.0000
    863 TI        -12.2900   37.8876    1.7490 Ti      1  UNL1        0.0000
    864 TI        -10.9144   26.7928   11.3798 Ti      1  UNL1        0.0000
    865 TI        -15.9501   29.2475    9.3549 Ti      1  UNL1        0.0000
    866 TI         -8.0567   34.1672    3.7291 Ti      1  UNL1        0.0000
    867 H         -16.3974   34.8805   11.0269 H       1  UNL1        0.0000
    868 H          -5.2601   29.9585    2.2023 H       1  UNL1        0.0000
    869 H         -20.8592   30.2268   10.8639 H       1  UNL1        0.0000
    870 H          -2.6867   35.8689    2.0822 H       1  UNL1        0.0000
    871 H          -9.9388   22.7583   10.9939 H       1  UNL1        0.0000
    872 H         -16.3485   37.2977    2.0711 H       1  UNL1        0.0000
    873 H         -11.7955   36.2508   -0.1241 H       1  UNL1        0.0000
    874 H          -7.9444   33.6219    0.1817 H       1  UNL1        0.0000
    875 H         -10.4045   26.1257    5.8687 H       1  UNL1        0.0000
    876 H         -13.0149   38.0463    7.2723 H       1  UNL1        0.0000
    877 H         -20.0227   32.6361    8.9990 H       1  UNL1        0.0000
    878 H          -3.3141   31.7803    4.1876 H       1  UNL1        0.0000
    879 H         -17.7216   31.1887    5.6652 H       1  UNL1        0.0000
    880 H         -15.3901   39.7155    4.1022 H       1  UNL1        0.0000
    881 H         -11.8978   40.9905    2.6045 H       1  UNL1        0.0000
    882 H          -5.4179   27.9397    3.4048 H       1  UNL1        0.0000
    883 H          -9.1988   35.8895    2.3148 H       1  UNL1        0.0000
    884 H         -13.8833   28.8956   10.7200 H       1  UNL1        0.0000
    885 H          -6.6797   28.7277    9.7694 H       1  UNL1        0.0000
    886 H          -8.1608   28.2586   10.5168 H       1  UNL1        0.0000
    887 H          -6.1056   33.1613    8.6705 H       1  UNL1        0.0000
    888 H          -6.6753   33.5199    7.0520 H       1  UNL1        0.0000
    889 H          -7.1685   23.7729    9.5794 H       1  UNL1        0.0000
    890 H          -8.4476   24.8734   10.0368 H       1  UNL1        0.0000
    891 C          -5.4908   33.1234    4.7451 C.3     1  UNL1        0.0000
    892 C         -17.8599   31.2448    8.3994 C.3     1  UNL1        0.0000
    893 C         -10.2221   26.0365    8.5017 C.3     1  UNL1        0.0000
    894 C         -13.2275   38.1798    4.6127 C.3     1  UNL1        0.0000
    895 C          -4.5948   32.5190    5.7403 C.ar    1  UNL1        0.0000
    896 C         -18.7918   31.8698    7.4223 C.2     1  UNL1        0.0000
    897 C          -9.2819   25.4221    7.5545 C.ar    1  UNL1        0.0000
    898 C         -14.1174   38.8266    5.6125 C.2     1  UNL1        0.0000
    899 C          -4.8435   32.5940    7.1467 C.ar    1  UNL1        0.0000
    900 C         -18.5754   31.7498    6.0343 C.3     1  UNL1        0.0000
    901 C          -8.1525   24.6618    8.0076 C.ar    1  UNL1        0.0000
    902 C         -15.2121   39.5996    5.1676 C.3     1  UNL1        0.0000
    903 C         -13.8629   38.6559    6.9674 C.2     1  UNL1        0.0000
    904 C          -9.5296   25.5543    6.1706 C.ar    1  UNL1        0.0000
    905 C          -3.4611   31.8201    5.2646 C.ar    1  UNL1        0.0000
    906 C         -19.8919   32.5622    7.9210 C.2     1  UNL1        0.0000
    907 C          -5.2790   30.0376    0.0582 C.2     1  UNL1        0.0000
    908 C         -11.7488   41.8292    0.0832 C.2     1  UNL1        0.0000
    909 C          -2.7946   35.8007   -0.0678 C.2     1  UNL1        0.0000
    910 C         -16.1529   37.3432   -0.0872 C.2     1  UNL1        0.0000
    911 C         -10.5447   33.8661    5.6180 C.3     1  UNL1        0.0000
    912 C         -15.3008   26.7718    7.5361 C.2     1  UNL1        0.0000
    913 C          -5.4149   31.4925    0.0350 C.2     1  UNL1        0.0000
    914 C         -11.8415   40.3957    0.0457 C.2     1  UNL1        0.0000
    915 C          -4.0924   35.1839   -0.0210 C.2     1  UNL1        0.0000
    916 C         -14.7506   37.7575   -0.0628 C.2     1  UNL1        0.0000
    917 C          -5.2397   29.3685    1.2879 C.3     1  UNL1        0.0000
    918 C         -16.3865   35.4689   11.9408 C.3     1  UNL1        0.0000
    919 C          -2.1393   36.0755    1.1661 C.3     1  UNL1        0.0000
    920 C         -21.4207   30.0474   11.7793 C.3     1  UNL1        0.0000
    921 C          -6.7349   29.0030   11.7938 C.ar    1  UNL1        0.0000
    922 C         -16.8501   37.1127    1.1253 C.3     1  UNL1        0.0000
    923 C          -9.8972   22.2311   11.9429 C.ar    1  UNL1        0.0000
    924 C         -11.7350   42.5804    1.3125 C.3     1  UNL1        0.0000
    925 N         -11.6799   41.9816    2.5506 N.3     1  UNL1        0.0000
    926 N          -7.3140   28.8202   10.5548 N.pl3   1  UNL1        0.0000
    927 N          -5.9244   33.2402    7.6780 N.pl3   1  UNL1        0.0000
    928 N          -7.8215   24.5036    9.3250 N.pl3   1  UNL1        0.0000
    929 O          -6.6671   33.5285    5.1109 O.3     1  UNL1        0.0000
    930 O         -17.0909   30.2939    8.0011 O.3     1  UNL1        0.0000
    931 O          -9.8407   26.1610    9.7228 O.3     1  UNL1        0.0000
    932 O         -13.2934   38.6095    3.4131 O.3     1  UNL1        0.0000
    933 O         -12.4571   37.2226    4.9992 O.3     1  UNL1        0.0000
    934 O         -11.3925   26.4049    8.0962 O.3     1  UNL1        0.0000
    935 O          -5.0789   33.2041    3.5334 O.3     1  UNL1        0.0000
    936 O         -17.9019   31.6810    9.5991 O.3     1  UNL1        0.0000
    937 O          -7.7514   32.9492    2.5344 O.3     1  UNL1        0.0000
    938 O         -15.3976   30.8079   10.0994 O.3     1  UNL1        0.0000
    939 O          -6.8126   35.2365    2.9843 O.3     1  UNL1        0.0000
    940 O         -17.1498   29.0832   10.5921 O.3     1  UNL1        0.0000
    941 O         -12.5433   25.8752   10.6868 O.3     1  UNL1        0.0000
    942 O         -10.7749   37.7706    2.9149 O.3     1  UNL1        0.0000
    943 O         -11.5894   28.1367   10.2227 O.3     1  UNL1        0.0000
    944 O         -12.4811   36.0135    2.3975 O.3     1  UNL1        0.0000
    945 O          -9.3236   33.6863    5.2637 O.3     1  UNL1        0.0000
    946 O         -15.9585   27.8067    7.9143 O.2     1  UNL1        0.0000
    947 O         -10.1721   25.0210   11.9889 O.3     1  UNL1        0.0000
    948 O         -11.9246   39.6942    1.1409 O.2     1  UNL1        0.0000
    949 O          -9.3699   27.8092   11.9838 O.3     1  UNL1        0.0000
    950 O         -14.1606   37.8585    1.0808 O.2     1  UNL1        0.0000
    951 O         -14.1390   26.4772    7.9939 O.2     1  UNL1        0.0000
    952 O         -11.2865   34.7870    5.1246 O.3     1  UNL1        0.0000
    953 O          -4.6318   34.8837    1.1270 O.2     1  UNL1        0.0000
    954 O         -18.7861   30.9233   11.9148 O.2     1  UNL1        0.0000
    955 O          -5.4273   32.1294    1.1564 O.2     1  UNL1        0.0000
    956 O         -16.5179   32.7057   11.9961 O.2     1  UNL1        0.0000
    957 O          -9.5596   35.3407    3.0354 O.3     1  UNL1        0.0000
    958 O         -14.2616   28.3369   10.0165 O.3     1  UNL1        0.0000
    959 O          -7.1055   34.1156    0.1026 O.3     1  UNL1        0.0000
    960 O         -11.6732   37.2176   -0.0641 O.3     1  UNL1        0.0000
    961 H         -10.4035   30.0721    8.3310 H       1  UNL1        0.0000
    962 H         -14.1570   24.6470    6.3229 H       1  UNL1        0.0000
    963 H          -9.4669   39.2794    5.1167 H       8  UNL8        0.0000
    964 H          -9.3581   31.7255    6.7535 H       1  UNL1        0.0000
    965 H         -14.0857   32.3009    8.2267 H       1  UNL1        0.0000
    966 H         -17.8376   26.8535    6.6381 H       1  UNL1        0.0000
    967 H         -12.7591   30.3742    9.0395 H       1  UNL1        0.0000
    968 H         -13.0413   33.9472    6.6355 H       1  UNL1        0.0000
    969 H          -8.1541   37.4039    4.1589 H       8  UNL8        0.0000
    970 H         -21.7720   37.6543    4.6697 H      54  UNL54       0.0000
    971 C         -11.1396   32.9318    6.6081 C.ar    1  UNL1        0.0000
    972 C         -12.3022   31.0961    8.3638 C.ar    1  UNL1        0.0000
    973 C          -7.6779   38.1020    4.8466 C.2     8  UNL8        0.0000
    974 C         -15.9340   25.8441    6.5651 C.2     1  UNL1        0.0000
    975 C         -12.4738   33.1028    7.0216 C.ar    1  UNL1        0.0000
    976 C         -10.9706   30.9260    7.9632 C.ar    1  UNL1        0.0000
    977 C          -8.4168   39.1655    5.3820 C.2     8  UNL8        0.0000
    978 C         -15.1990   24.7684    6.0335 C.3     1  UNL1        0.0000
    979 C          -6.3293   37.9315    5.1834 C.3     8  UNL8        0.0000
    980 C         -17.2862   26.0168    6.2144 C.3     1  UNL1        0.0000
    981 C         -10.3867   31.8438    7.0884 C.ar    1  UNL1        0.0000
    982 C         -13.0524   32.1856    7.9015 C.ar    1  UNL1        0.0000
    983 H         -13.9638   33.9056   12.5170 H      22  UNL22       0.0000
    984 H         -12.4124   32.5106   10.6621 H      22  UNL22       0.0000
    985 C         -13.1692   33.1832   12.6539 C.2    22  UNL22       0.0000
    986 H          -9.7875   32.2693   10.3864 H      22  UNL22       0.0000
    987 C         -12.4068   32.4998   11.7449 C.2    22  UNL22       0.0000
    988 H         -13.8204   34.1976   15.0434 H      22  UNL22       0.0000
    989 N         -12.7539   32.7902   13.9142 N.pl3  22  UNL22       0.0000
    990 C          -9.3813   31.6897   11.2252 C.3    22  UNL22       0.0000
    991 H          -8.9084   32.3776   11.9372 H      22  UNL22       0.0000
    992 C         -13.3331   33.2296   15.1910 C.3    22  UNL22       0.0000
    993 N         -11.5375   31.6991   12.4656 N.pl3  22  UNL22       0.0000
    994 H         -14.0742   32.4927   15.5268 H      22  UNL22       0.0000
    995 H          -8.6121   31.0109   10.8291 H      22  UNL22       0.0000
    996 C         -11.7651   31.8860   13.7793 C.3    22  UNL22       0.0000
    997 C         -10.4660   30.8543   11.8981 C.3    22  UNL22       0.0000
    998 H         -10.9307   30.1455   11.1998 H      22  UNL22       0.0000
    999 H         -12.5365   33.3251   15.9350 H      22  UNL22       0.0000
   1000 H         -11.2446   31.3895   14.5895 H      22  UNL22       0.0000
   1001 H         -10.0619   30.2721   12.7328 H      22  UNL22       0.0000
   1002 TI        -21.2118   23.7442   24.3567 Ti      1  UNL1        0.0000
   1003 TI        -10.3814   26.6254   14.9919 Ti      1  UNL1        0.0000
   1004 TI        -17.1152   19.8080   22.5367 Ti      1  UNL1        0.0000
   1005 TI        -15.6040   28.9701   16.7637 Ti      1  UNL1        0.0000
   1006 TI        -16.6025   30.6484   14.8593 Ti      1  UNL1        0.0000
   1007 TI        -15.2270   19.5536   24.4901 Ti      1  UNL1        0.0000
   1008 TI        -20.2626   22.0083   22.4652 Ti      1  UNL1        0.0000
   1009 TI        -12.3692   26.9280   16.8393 Ti      1  UNL1        0.0000
   1010 H         -20.7100   27.6413   24.1372 H       1  UNL1        0.0000
   1011 H          -9.5726   22.7193   15.3125 H       1  UNL1        0.0000
   1012 H         -25.1717   22.9876   23.9742 H       1  UNL1        0.0000
   1013 H          -6.9992   28.6297   15.1925 H       1  UNL1        0.0000
   1014 H         -14.2513   15.5191   24.1041 H       1  UNL1        0.0000
   1015 H         -20.6611   30.0585   15.1813 H       1  UNL1        0.0000
   1016 H         -16.1081   29.0116   12.9862 H       1  UNL1        0.0000
   1017 H         -12.2569   26.3827   13.2919 H       1  UNL1        0.0000
   1018 H         -14.7170   18.8865   18.9790 H       1  UNL1        0.0000
   1019 H         -17.3274   30.8071   20.3826 H       1  UNL1        0.0000
   1020 H         -24.3353   25.3969   22.1093 H       1  UNL1        0.0000
   1021 H          -7.6266   24.5411   17.2979 H       1  UNL1        0.0000
   1022 H         -22.0342   23.9495   18.7754 H       1  UNL1        0.0000
   1023 H         -19.7026   32.4763   17.2125 H       1  UNL1        0.0000
   1024 H         -16.2103   33.7513   15.7147 H       1  UNL1        0.0000
   1025 H          -9.7304   20.7005   16.5150 H       1  UNL1        0.0000
   1026 H         -13.5113   28.6502   15.4250 H       1  UNL1        0.0000
   1027 H         -18.1959   21.6564   23.8303 H       1  UNL1        0.0000
   1028 H         -10.9922   21.4885   22.8797 H       1  UNL1        0.0000
   1029 H         -12.4733   21.0194   23.6271 H       1  UNL1        0.0000
   1030 H         -10.4181   25.9221   21.7808 H       1  UNL1        0.0000
   1031 H         -10.9878   26.2807   20.1623 H       1  UNL1        0.0000
   1032 H         -11.4810   16.5337   22.6897 H       1  UNL1        0.0000
   1033 H         -12.7602   17.6342   23.1471 H       1  UNL1        0.0000
   1034 C          -9.8033   25.8842   17.8554 C.3     1  UNL1        0.0000
   1035 C         -22.1724   24.0056   21.5096 C.3     1  UNL1        0.0000
   1036 C         -14.5347   18.7973   21.6120 C.3     1  UNL1        0.0000
   1037 C         -17.5401   30.9406   17.7230 C.3     1  UNL1        0.0000
   1038 C          -8.9073   25.2798   18.8506 C.ar    1  UNL1        0.0000
   1039 C         -23.1043   24.6306   20.5326 C.2     1  UNL1        0.0000
   1040 C         -13.5945   18.1829   20.6648 C.ar    1  UNL1        0.0000
   1041 C         -18.4299   31.5874   18.7228 C.2     1  UNL1        0.0000
   1042 C          -9.1561   25.3548   20.2570 C.ar    1  UNL1        0.0000
   1043 C         -22.8879   24.5106   19.1446 C.3     1  UNL1        0.0000
   1044 C         -12.4650   17.4226   21.1178 C.ar    1  UNL1        0.0000
   1045 C         -19.5246   32.3604   18.2779 C.3     1  UNL1        0.0000
   1046 C         -18.1754   31.4167   20.0777 C.2     1  UNL1        0.0000
   1047 C         -13.8422   18.3151   19.2809 C.ar    1  UNL1        0.0000
   1048 C          -7.7736   24.5809   18.3749 C.ar    1  UNL1        0.0000
   1049 C         -24.2045   25.3230   21.0313 C.2     1  UNL1        0.0000
   1050 C          -9.5916   22.7984   13.1685 C.ar    1  UNL1        0.0000
   1051 C         -16.0613   34.5900   13.1935 C.2     1  UNL1        0.0000
   1052 C          -7.1071   28.5615   13.0424 C.ar    1  UNL1        0.0000
   1053 C         -20.4655   30.1040   13.0231 C.2     1  UNL1        0.0000
   1054 C         -14.8572   26.6269   18.7283 C.3     1  UNL1        0.0000
   1055 C         -19.6133   19.5326   20.6464 C.2     1  UNL1        0.0000
   1056 C          -9.7274   24.2533   13.1453 C.3     1  UNL1        0.0000
   1057 C         -16.1540   33.1565   13.1560 C.2     1  UNL1        0.0000
   1058 C          -8.4050   27.9447   13.0893 C.3     1  UNL1        0.0000
   1059 C         -19.0631   30.5183   13.0475 C.2     1  UNL1        0.0000
   1060 C          -9.5522   22.1293   14.3981 C.ar    1  UNL1        0.0000
   1061 C         -20.6990   28.2297   25.0511 C.3     1  UNL1        0.0000
   1062 C          -6.4518   28.8363   14.2764 C.ar    1  UNL1        0.0000
   1063 C         -25.7332   22.8082   24.8896 C.3     1  UNL1        0.0000
   1064 C         -11.0475   21.7638   24.9041 C.ar    1  UNL1        0.0000
   1065 C         -21.1626   29.8735   14.2355 C.3     1  UNL1        0.0000
   1066 C         -14.2097   14.9919   25.0532 C.ar    1  UNL1        0.0000
   1067 C         -16.0475   35.3412   14.4227 C.3     1  UNL1        0.0000
   1068 N         -15.9925   34.7424   15.6609 N.3     1  UNL1        0.0000
   1069 N         -11.6265   21.5810   23.6651 N.pl3   1  UNL1        0.0000
   1070 N         -10.2370   26.0010   20.7883 N.pl3   1  UNL1        0.0000
   1071 N         -12.1340   17.2644   22.4352 N.pl3   1  UNL1        0.0000
   1072 O         -10.9797   26.2893   18.2212 O.3     1  UNL1        0.0000
   1073 O         -21.4034   23.0547   21.1114 O.3     1  UNL1        0.0000
   1074 O         -14.1532   18.9218   22.8331 O.3     1  UNL1        0.0000
   1075 O         -17.6060   31.3703   16.5234 O.3     1  UNL1        0.0000
   1076 O         -16.7696   29.9834   18.1095 O.3     1  UNL1        0.0000
   1077 O         -15.7051   19.1657   21.2065 O.3     1  UNL1        0.0000
   1078 O          -9.3915   25.9649   16.6436 O.3     1  UNL1        0.0000
   1079 O         -22.2144   24.4418   22.7094 O.3     1  UNL1        0.0000
   1080 O         -12.0640   25.7100   15.6446 O.3     1  UNL1        0.0000
   1081 O         -19.7102   23.5687   23.2097 O.3     1  UNL1        0.0000
   1082 O         -11.1252   27.9973   16.0946 O.3     1  UNL1        0.0000
   1083 O         -21.4624   21.8440   23.7024 O.3     1  UNL1        0.0000
   1084 O         -16.8558   18.6360   23.7971 O.3     1  UNL1        0.0000
   1085 O         -15.0874   30.5314   16.0252 O.3     1  UNL1        0.0000
   1086 O         -15.9019   20.8975   23.3329 O.3     1  UNL1        0.0000
   1087 O         -16.7936   28.7743   15.5078 O.3     1  UNL1        0.0000
   1088 O         -13.6361   26.4471   18.3740 O.3     1  UNL1        0.0000
   1089 O         -20.2710   20.5675   21.0246 O.2     1  UNL1        0.0000
   1090 O         -14.4846   17.7818   25.0992 O.3     1  UNL1        0.0000
   1091 O         -16.2372   32.4550   14.2512 O.2     1  UNL1        0.0000
   1092 O         -13.6825   20.5700   25.0940 O.3     1  UNL1        0.0000
   1093 O         -18.4731   30.6193   14.1911 O.2     1  UNL1        0.0000
   1094 O         -18.4515   19.2380   21.1042 O.2     1  UNL1        0.0000
   1095 O         -15.5991   27.5478   18.2349 O.3     1  UNL1        0.0000
   1096 O          -8.9443   27.6445   14.2373 O.3     1  UNL1        0.0000
   1097 O         -23.0986   23.6841   25.0251 O.2     1  UNL1        0.0000
   1098 O          -9.7399   24.8902   14.2667 O.3     1  UNL1        0.0000
   1099 O         -20.8304   25.4665   25.1064 O.2     1  UNL1        0.0000
   1100 O         -13.8722   28.1015   16.1457 O.3     1  UNL1        0.0000
   1101 O         -18.5741   21.0977   23.1267 O.3     1  UNL1        0.0000
   1102 O         -11.4181   26.8764   13.2129 O.3     1  UNL1        0.0000
   1103 O         -15.9857   29.9784   13.0462 O.3     1  UNL1        0.0000
   1104 H         -14.7160   22.8329   21.4413 H       1  UNL1        0.0000
   1105 H         -18.4695   17.4078   19.4331 H       1  UNL1        0.0000
   1106 H         -13.7794   32.0402   18.2269 H       9  UNL9        0.0000
   1107 H         -13.6707   24.4863   19.8637 H       1  UNL1        0.0000
   1108 H         -18.3982   25.0617   21.3370 H       1  UNL1        0.0000
   1109 H         -22.1501   19.6143   19.7483 H       1  UNL1        0.0000
   1110 H         -17.0717   23.1350   22.1497 H       1  UNL1        0.0000
   1111 H         -17.3538   26.7080   19.7458 H       1  UNL1        0.0000
   1112 H         -12.4667   30.1647   17.2691 H       9  UNL9        0.0000
   1113 H         -26.0846   30.4151   17.7800 H      54  UNL54       0.0000
   1114 C         -15.4522   25.6926   19.7184 C.ar    1  UNL1        0.0000
   1115 C         -16.6148   23.8569   21.4741 C.ar    1  UNL1        0.0000
   1116 C         -11.9905   30.8628   17.9569 C.2     9  UNL9        0.0000
   1117 C         -20.2465   18.6049   19.6754 C.2     1  UNL1        0.0000
   1118 C         -16.7864   25.8636   20.1319 C.ar    1  UNL1        0.0000
   1119 C         -15.2831   23.6868   21.0735 C.ar    1  UNL1        0.0000
   1120 C         -12.7293   31.9263   18.4922 C.2     9  UNL9        0.0000
   1121 C         -19.5116   17.5292   19.1438 C.3     1  UNL1        0.0000
   1122 C         -10.6418   30.6923   18.2937 C.3     9  UNL9        0.0000
   1123 C         -21.5987   18.7776   19.3247 C.3     1  UNL1        0.0000
   1124 C         -14.6992   24.6046   20.1986 C.ar    1  UNL1        0.0000
   1125 C         -17.3649   24.9464   21.0117 C.ar    1  UNL1        0.0000
   1126 H         -18.2763   26.6664   25.6273 H      24  UNL24       0.0000
   1127 H         -16.7250   25.2714   23.7724 H      24  UNL24       0.0000
   1128 C         -17.4817   25.9440   25.7642 C.2    24  UNL24       0.0000
   1129 H         -14.1000   25.0301   23.4967 H      24  UNL24       0.0000
   1130 C         -16.7193   25.2606   24.8552 C.2    24  UNL24       0.0000
   1131 H         -18.1329   26.9584   28.1536 H      24  UNL24       0.0000
   1132 N         -17.0664   25.5510   27.0245 N.pl3  24  UNL24       0.0000
   1133 C         -13.6938   24.4505   24.3354 C.3    24  UNL24       0.0000
   1134 H         -13.2209   25.1384   25.0474 H      24  UNL24       0.0000
   1135 C         -17.6457   25.9904   28.3013 C.3    24  UNL24       0.0000
   1136 N         -15.8501   24.4599   25.5759 N.pl3  24  UNL24       0.0000
   1137 H         -18.3867   25.2535   28.6371 H      24  UNL24       0.0000
   1138 H         -12.9246   23.7717   23.9394 H      24  UNL24       0.0000
   1139 C         -16.0776   24.6468   26.8896 C.3    24  UNL24       0.0000
   1140 C         -14.7785   23.6151   25.0084 C.3    24  UNL24       0.0000
   1141 H         -15.2432   22.9063   24.3101 H      24  UNL24       0.0000
   1142 H         -16.8490   26.0859   29.0453 H      24  UNL24       0.0000
   1143 H         -15.5572   24.1503   27.6998 H      24  UNL24       0.0000
   1144 H         -14.3745   23.0329   25.8431 H      24  UNL24       0.0000
   1145 TI        -25.5244   16.5050   37.4669 Ti      1  UNL1        0.0000
   1146 TI        -14.6939   19.3862   28.1021 Ti      1  UNL1        0.0000
   1147 TI        -21.4277   12.5688   35.6470 Ti      1  UNL1        0.0000
   1148 TI        -19.9165   21.7309   29.8739 Ti      1  UNL1        0.0000
   1149 TI        -20.9151   23.4092   27.9695 Ti      1  UNL1        0.0000
   1150 TI        -19.5395   12.3144   37.6003 Ti      1  UNL1        0.0000
   1151 TI        -24.5752   14.7691   35.5755 Ti      1  UNL1        0.0000
   1152 TI        -16.6817   19.6887   29.9496 Ti      1  UNL1        0.0000
   1153 H         -25.0225   20.4021   37.2475 H      10  UNL10       0.0000
   1154 H         -13.8851   15.4801   28.4228 H       1  UNL1        0.0000
   1155 H         -29.4843   15.7484   37.0845 H      11  UNL11       0.0000
   1156 H         -11.3117   21.3905   28.3028 H       1  UNL1        0.0000
   1157 H         -18.5639    8.2799   37.2144 H       5  UNL5        0.0000
   1158 H         -24.9736   22.8193   28.2916 H       1  UNL1        0.0000
   1159 H         -20.4206   21.7724   26.0965 H       1  UNL1        0.0000
   1160 H         -16.5694   19.1435   26.4022 H       1  UNL1        0.0000
   1161 H         -19.0296   11.6473   32.0892 H       1  UNL1        0.0000
   1162 H         -21.6399   23.5679   33.4929 H       1  UNL1        0.0000
   1163 H         -28.6478   18.1577   35.2196 H       1  UNL1        0.0000
   1164 H         -11.9391   17.3019   30.4081 H       1  UNL1        0.0000
   1165 H         -26.3467   16.7103   31.8857 H       1  UNL1        0.0000
   1166 H         -24.0151   25.2371   30.3228 H       1  UNL1        0.0000
   1167 H         -20.5228   26.5121   28.8250 H       1  UNL1        0.0000
   1168 H         -14.0429   13.4613   29.6253 H       1  UNL1        0.0000
   1169 H         -17.8239   21.4110   28.5353 H       1  UNL1        0.0000
   1170 H         -22.5084   14.4172   36.9406 H       1  UNL1        0.0000
   1171 H         -15.3047   14.2493   35.9900 H      12  UNL12       0.0000
   1172 H         -16.7859   13.7802   36.7373 H      12  UNL12       0.0000
   1173 H         -14.7306   18.6829   34.8911 H       1  UNL1        0.0000
   1174 H         -15.3003   19.0415   33.2726 H       1  UNL1        0.0000
   1175 H         -15.7936    9.2945   35.8000 H       1  UNL1        0.0000
   1176 H         -17.0727   10.3950   36.2574 H       1  UNL1        0.0000
   1177 C         -14.1159   18.6450   30.9657 C.3     1  UNL1        0.0000
   1178 C         -26.4849   16.7664   34.6199 C.3     1  UNL1        0.0000
   1179 C         -18.8472   11.5581   34.7222 C.3     1  UNL1        0.0000
   1180 C         -21.8526   23.7014   30.8333 C.3     1  UNL1        0.0000
   1181 C         -13.2198   18.0406   31.9609 C.ar    1  UNL1        0.0000
   1182 C         -27.4168   17.3914   33.6429 C.2     1  UNL1        0.0000
   1183 C         -17.9070   10.9437   33.7751 C.ar    1  UNL1        0.0000
   1184 C         -22.7424   24.3482   31.8331 C.2     1  UNL1        0.0000
   1185 C         -13.4686   18.1156   33.3673 C.ar    1  UNL1        0.0000
   1186 C         -27.2004   17.2714   32.2548 C.3     1  UNL1        0.0000
   1187 C         -16.7775   10.1834   34.2281 C.ar    1  UNL1        0.0000
   1188 C         -23.8372   25.1212   31.3882 C.3     1  UNL1        0.0000
   1189 C         -22.4879   24.1775   33.1880 C.2     1  UNL1        0.0000
   1190 C         -18.1547   11.0759   32.3911 C.ar    1  UNL1        0.0000
   1191 C         -12.0862   17.3417   31.4851 C.ar    1  UNL1        0.0000
   1192 C         -28.5170   18.0838   34.1415 C.2     1  UNL1        0.0000
   1193 C         -13.9041   15.5592   26.2787 C.ar    1  UNL1        0.0000
   1194 C         -20.3738   27.3508   26.3037 C.2     1  UNL1        0.0000
   1195 C         -11.4197   21.3223   26.1527 C.ar    1  UNL1        0.0000
   1196 C         -24.7780   22.8648   26.1333 C.2     1  UNL1        0.0000
   1197 C         -19.1698   19.3877   31.8385 C.3     1  UNL1        0.0000
   1198 C         -23.9259   12.2934   33.7567 C.2     1  UNL1        0.0000
   1199 C         -14.0399   17.0141   26.2555 C.3     1  UNL1        0.0000
   1200 C         -20.4666   25.9173   26.2662 C.2     1  UNL1        0.0000
   1201 C         -12.7175   20.7055   26.1996 C.3     1  UNL1        0.0000
   1202 C         -23.3757   23.2791   26.1578 C.2     1  UNL1        0.0000
   1203 C         -13.8647   14.8901   27.5084 C.ar    1  UNL1        0.0000
   1204 C         -25.0116   20.9905   38.1614 C.3    25  UNL25       0.0000
   1205 C         -10.7644   21.5971   27.3867 C.ar    1  UNL1        0.0000
   1206 C         -30.0458   15.5690   37.9999 C.3    26  UNL26       0.0000
   1207 C         -15.3600   14.5246   38.0143 C.3    12  UNL12       0.0000
   1208 C         -25.4752   22.6343   27.3458 C.3     1  UNL1        0.0000
   1209 C         -18.5222    7.7527   38.1635 C.3     5  UNL5        0.0000
   1210 C         -20.3600   28.1020   27.5330 C.3     1  UNL1        0.0000
   1211 N         -20.3050   27.5032   28.7712 N.3     1  UNL1        0.0000
   1212 N         -15.9390   14.3418   36.7754 N.3    12  UNL12       0.0000
   1213 N         -14.5495   18.7618   33.8986 N.pl3   1  UNL1        0.0000
   1214 N         -16.4465   10.0252   35.5455 N.pl3   1  UNL1        0.0000
   1215 O         -15.2922   19.0501   31.3315 O.3     1  UNL1        0.0000
   1216 O         -25.7159   15.8155   34.2216 O.3     1  UNL1        0.0000
   1217 O         -18.4657   11.6826   35.9434 O.3     1  UNL1        0.0000
   1218 O         -21.9185   24.1311   29.6337 O.3     1  UNL1        0.0000
   1219 O         -21.0822   22.7442   31.2197 O.3     1  UNL1        0.0000
   1220 O         -20.0176   11.9265   34.3167 O.3     1  UNL1        0.0000
   1221 O         -13.7040   18.7257   29.7539 O.3     1  UNL1        0.0000
   1222 O         -26.5269   17.2026   35.8196 O.3     1  UNL1        0.0000
   1223 O         -16.3765   18.4708   28.7549 O.3     1  UNL1        0.0000
   1224 O         -24.0227   16.3294   36.3200 O.3     1  UNL1        0.0000
   1225 O         -15.4377   20.7581   29.2049 O.3     1  UNL1        0.0000
   1226 O         -25.7749   14.6048   36.8127 O.3     1  UNL1        0.0000
   1227 O         -21.1684   11.3968   36.9074 O.3     1  UNL1        0.0000
   1228 O         -19.3999   23.2922   29.1355 O.3     1  UNL1        0.0000
   1229 O         -20.2144   13.6583   36.4432 O.3     1  UNL1        0.0000
   1230 O         -21.1062   21.5351   28.6180 O.3     1  UNL1        0.0000
   1231 O         -17.9487   19.2079   31.4843 O.3     1  UNL1        0.0000
   1232 O         -24.5835   13.3283   34.1349 O.2     1  UNL1        0.0000
   1233 O         -18.7972   10.5426   38.2094 O.3     1  UNL1        0.0000
   1234 O         -20.5497   25.2158   27.3614 O.2     1  UNL1        0.0000
   1235 O         -17.9950   13.3308   38.2043 O.3     1  UNL1        0.0000
   1236 O         -22.7856   23.3801   27.3014 O.2     1  UNL1        0.0000
   1237 O         -22.7640   11.9988   34.2145 O.2     1  UNL1        0.0000
   1238 O         -19.9116   20.3086   31.3452 O.3     1  UNL1        0.0000
   1239 O         -13.2568   20.4053   27.3476 O.3     1  UNL1        0.0000
   1240 O         -27.4112   16.4449   38.1354 O.3     1  UNL1        0.0000
   1241 O         -14.0524   17.6510   27.3770 O.3     1  UNL1        0.0000
   1242 O         -25.1430   18.2273   38.2167 O.3     1  UNL1        0.0000
   1243 O         -18.1847   20.8623   29.2560 O.3     1  UNL1        0.0000
   1244 O         -22.8866   13.8585   36.2370 O.3     1  UNL1        0.0000
   1245 O         -15.7306   19.6372   26.3232 O.3     1  UNL1        0.0000
   1246 O         -20.2982   22.7392   26.1564 O.3     1  UNL1        0.0000
   1247 H         -19.0286   15.5937   34.5516 H       1  UNL1        0.0000
   1248 H         -22.7821   10.1686   32.5434 H       1  UNL1        0.0000
   1249 H         -18.0920   24.8010   31.3372 H      13  UNL13       0.0000
   1250 H         -17.9832   17.2471   32.9740 H       1  UNL1        0.0000
   1251 H         -22.7108   17.8225   34.4472 H       1  UNL1        0.0000
   1252 H         -26.4627   12.3751   32.8586 H       1  UNL1        0.0000
   1253 H         -21.3842   15.8958   35.2600 H       1  UNL1        0.0000
   1254 H         -21.6663   19.4688   32.8560 H       1  UNL1        0.0000
   1255 H         -16.7792   22.9255   30.3794 H      13  UNL13       0.0000
   1256 H         -30.3971   23.1759   30.8903 H      54  UNL54       0.0000
   1257 C         -19.7647   18.4534   32.8287 C.ar    1  UNL1        0.0000
   1258 C         -20.9273   16.6177   34.5844 C.ar    1  UNL1        0.0000
   1259 C         -16.3030   23.6236   31.0672 C.2    13  UNL13       0.0000
   1260 C         -24.5590   11.3657   32.7857 C.2     1  UNL1        0.0000
   1261 C         -21.0989   18.6244   33.2422 C.ar    1  UNL1        0.0000
   1262 C         -19.5956   16.4476   34.1838 C.ar    1  UNL1        0.0000
   1263 C         -17.0419   24.6871   31.6025 C.2    13  UNL13       0.0000
   1264 C         -23.8241   10.2900   32.2540 C.3     1  UNL1        0.0000
   1265 C         -14.9544   23.4531   31.4039 C.3    13  UNL13       0.0000
   1266 C         -25.9113   11.5384   32.4349 C.3     1  UNL1        0.0000
   1267 C         -19.0117   17.3654   33.3089 C.ar    1  UNL1        0.0000
   1268 C         -21.6774   17.7072   34.1220 C.ar    1  UNL1        0.0000
   1269 H         -22.5889   19.4272   38.7376 H      28  UNL28       0.0000
   1270 H         -21.0375   18.0322   36.8827 H      28  UNL28       0.0000
   1271 C         -21.7942   18.7048   38.8745 C.2    28  UNL28       0.0000
   1272 H         -18.4126   17.7909   36.6070 H      28  UNL28       0.0000
   1273 C         -21.0319   18.0214   37.9655 C.2    28  UNL28       0.0000
   1274 H         -22.4455   19.7192   41.2639 H      28  UNL28       0.0000
   1275 N         -21.3789   18.3118   40.1347 N.pl3  28  UNL28       0.0000
   1276 C         -18.0064   17.2113   37.4457 C.3    28  UNL28       0.0000
   1277 H         -17.5335   17.8992   38.1577 H      28  UNL28       0.0000
   1278 C         -21.9582   18.7512   41.4116 C.3    28  UNL28       0.0000
   1279 N         -20.1626   17.2207   38.6862 N.pl3  28  UNL28       0.0000
   1280 H         -22.6993   18.0143   41.7474 H      28  UNL28       0.0000
   1281 H         -17.2372   16.5325   37.0497 H      28  UNL28       0.0000
   1282 C         -20.3901   17.4076   39.9998 C.3    28  UNL28       0.0000
   1283 C         -19.0910   16.3759   38.1186 C.3    28  UNL28       0.0000
   1284 H         -19.5557   15.6670   37.4204 H      28  UNL28       0.0000
   1285 H         -21.1615   18.8467   42.1555 H      28  UNL28       0.0000
   1286 H         -19.8697   16.9111   40.8101 H      28  UNL28       0.0000
   1287 H         -18.6870   15.7937   38.9534 H      28  UNL28       0.0000
   1288 TI         13.1539    2.2298   11.2464 Ti      1  UNL1        0.0000
   1289 TI         23.9844    5.1110    1.8816 Ti      1  UNL1        0.0000
   1290 TI         17.2506   -1.7064    9.4264 Ti      1  UNL1        0.0000
   1291 TI         18.7618    7.4557    3.6534 Ti      1  UNL1        0.0000
   1292 TI         17.7633    9.1340    1.7490 Ti      1  UNL1        0.0000
   1293 TI         19.1388   -1.9608   11.3798 Ti      1  UNL1        0.0000
   1294 TI         14.1031    0.4939    9.3549 Ti      1  UNL1        0.0000
   1295 TI         21.9966    5.4135    3.7291 Ti      1  UNL1        0.0000
   1296 H          13.6558    6.1268   11.0269 H       1  UNL1        0.0000
   1297 H          24.7932    1.2049    2.2023 H       1  UNL1        0.0000
   1298 H           9.1941    1.4731   10.8639 H       1  UNL1        0.0000
   1299 H          27.3666    7.1153    2.0822 H       1  UNL1        0.0000
   1300 H          20.1144   -5.9953   10.9939 H       1  UNL1        0.0000
   1301 H          13.7047    8.5441    2.0711 H       1  UNL1        0.0000
   1302 H          18.2577    7.4972   -0.1241 H       1  UNL1        0.0000
   1303 H          22.1089    4.8683    0.1817 H       1  UNL1        0.0000
   1304 H          19.6487   -2.6279    5.8687 H       1  UNL1        0.0000
   1305 H          17.0384    9.2927    7.2723 H       1  UNL1        0.0000
   1306 H          10.0305    3.8825    8.9990 H       1  UNL1        0.0000
   1307 H          26.7392    3.0267    4.1876 H       1  UNL1        0.0000
   1308 H          12.3316    2.4351    5.6652 H       1  UNL1        0.0000
   1309 H          14.6632   10.9619    4.1022 H       1  UNL1        0.0000
   1310 H          18.1555   12.2368    2.6045 H       1  UNL1        0.0000
   1311 H          24.6354   -0.8139    3.4048 H      54  UNL54       0.0000
   1312 H          20.8545    7.1358    2.3148 H       1  UNL1        0.0000
   1313 H          16.1699    0.1420   10.7200 H       1  UNL1        0.0000
   1314 H          23.3736   -0.0259    9.7694 H       1  UNL1        0.0000
   1315 H          21.8925   -0.4950   10.5168 H       1  UNL1        0.0000
   1316 H          23.9477    4.4077    8.6705 H       1  UNL1        0.0000
   1317 H          23.3780    4.7663    7.0520 H       1  UNL1        0.0000
   1318 H          22.8848   -4.9808    9.5794 H       1  UNL1        0.0000
   1319 H          21.6056   -3.8802   10.0368 H       1  UNL1        0.0000
   1320 C          24.5625    4.3697    4.7451 C.3     1  UNL1        0.0000
   1321 C          12.1934    2.4911    8.3994 C.3     1  UNL1        0.0000
   1322 C          19.8311   -2.7171    8.5017 C.3     1  UNL1        0.0000
   1323 C          16.8257    9.4262    4.6127 C.3     1  UNL1        0.0000
   1324 C          25.4585    3.7654    5.7403 C.ar    1  UNL1        0.0000
   1325 C          11.2615    3.1162    7.4223 C.ar    1  UNL1        0.0000
   1326 C          20.7713   -3.3315    7.5545 C.2     1  UNL1        0.0000
   1327 C          15.9359   10.0730    5.6125 C.ar    1  UNL1        0.0000
   1328 C          25.2097    3.8403    7.1467 C.ar    1  UNL1        0.0000
   1329 C          11.4779    2.9962    6.0343 C.ar    1  UNL1        0.0000
   1330 C          21.9008   -4.0918    8.0076 C.2     1  UNL1        0.0000
   1331 C          14.8412   10.8460    5.1676 C.ar    1  UNL1        0.0000
   1332 C          16.1904    9.9022    6.9674 C.ar    1  UNL1        0.0000
   1333 C          20.5236   -3.1994    6.1706 C.3     1  UNL1        0.0000
   1334 C          26.5922    3.0664    5.2646 C.ar    1  UNL1        0.0000
   1335 C          10.1613    3.8086    7.9210 C.ar    1  UNL1        0.0000
   1336 C          24.7742    1.2840    0.0582 C.2     1  UNL1        0.0000
   1337 C          18.3045   13.0756    0.0832 C.2     1  UNL1        0.0000
   1338 C          27.2587    7.0471   -0.0678 C.2     1  UNL1        0.0000
   1339 C          13.9003    8.5895   -0.0872 C.2     1  UNL1        0.0000
   1340 C          19.5085    5.1125    5.6180 C.3     1  UNL1        0.0000
   1341 C          14.7525   -1.9819    7.5361 C.2     1  UNL1        0.0000
   1342 C          24.6384    2.7388    0.0350 C.2     1  UNL1        0.0000
   1343 C          18.2118   11.6421    0.0457 C.2     1  UNL1        0.0000
   1344 C          25.9608    6.4303   -0.0210 C.2     1  UNL1        0.0000
   1345 C          15.3026    9.0039   -0.0628 C.2     1  UNL1        0.0000
   1346 C          24.8136    0.6149    1.2879 C.3     1  UNL1        0.0000
   1347 C          13.6668    6.7152   11.9408 C.ar    1  UNL1        0.0000
   1348 C          27.9140    7.3219    1.1661 C.3     1  UNL1        0.0000
   1349 C           8.6326    1.2938   11.7793 C.ar    1  UNL1        0.0000
   1350 C          23.3183    0.2494   11.7938 C.ar    1  UNL1        0.0000
   1351 C          13.2031    8.3591    1.1253 C.3     1  UNL1        0.0000
   1352 C          20.1561   -6.5225   11.9429 C.3     1  UNL1        0.0000
   1353 C          18.3183   13.8268    1.3125 C.3     1  UNL1        0.0000
   1354 N          18.3733   13.2279    2.5506 N.3     1  UNL1        0.0000
   1355 N          22.7393    0.0666   10.5548 N.pl3   1  UNL1        0.0000
   1356 N          24.1288    4.4866    7.6780 N.pl3   1  UNL1        0.0000
   1357 N          22.2318   -4.2500    9.3250 N.pl3   1  UNL1        0.0000
   1358 O          23.3861    4.7748    5.1109 O.3     1  UNL1        0.0000
   1359 O          12.9624    1.5403    8.0011 O.3     1  UNL1        0.0000
   1360 O          20.2126   -2.5927    9.7228 O.3     1  UNL1        0.0000
   1361 O          16.7598    9.8559    3.4131 O.3     1  UNL1        0.0000
   1362 O          17.5962    8.4690    4.9992 O.3     1  UNL1        0.0000
   1363 O          18.6607   -2.3487    8.0962 O.3     1  UNL1        0.0000
   1364 O          24.9743    4.4505    3.5334 O.3     1  UNL1        0.0000
   1365 O          12.1514    2.9274    9.5991 O.3     1  UNL1        0.0000
   1366 O          22.3018    4.1956    2.5344 O.3     1  UNL1        0.0000
   1367 O          14.6556    2.0542   10.0994 O.3     1  UNL1        0.0000
   1368 O          23.2406    6.4829    2.9843 O.3     1  UNL1        0.0000
   1369 O          12.9034    0.3296   10.5921 O.3     1  UNL1        0.0000
   1370 O          17.5099   -2.8784   10.6868 O.3     1  UNL1        0.0000
   1371 O          19.2784    9.0170    2.9149 O.3     1  UNL1        0.0000
   1372 O          18.4639   -0.6169   10.2227 O.3     1  UNL1        0.0000
   1373 O          17.5721    7.2599    2.3975 O.3     1  UNL1        0.0000
   1374 O          20.7297    4.9327    5.2637 O.3     1  UNL1        0.0000
   1375 O          14.0948   -0.9469    7.9143 O.2     1  UNL1        0.0000
   1376 O          19.8812   -3.7326   11.9889 O.2     1  UNL1        0.0000
   1377 O          18.1286   10.9406    1.1409 O.2     1  UNL1        0.0000
   1378 O          20.6833   -0.9445   11.9838 O.3     1  UNL1        0.0000
   1379 O          15.8927    9.1049    1.0808 O.2     1  UNL1        0.0000
   1380 O          15.9143   -2.2764    7.9939 O.2     1  UNL1        0.0000
   1381 O          18.7667    6.0334    5.1246 O.3     1  UNL1        0.0000
   1382 O          25.4215    6.1301    1.1270 O.2     1  UNL1        0.0000
   1383 O          11.2672    2.1697   11.9148 O.3     1  UNL1        0.0000
   1384 O          24.6259    3.3758    1.1564 O.2     1  UNL1        0.0000
   1385 O          13.5354    3.9521   11.9961 O.3     1  UNL1        0.0000
   1386 O          20.4936    6.5871    3.0354 O.3     1  UNL1        0.0000
   1387 O          15.7917   -0.4167   10.0165 O.3     1  UNL1        0.0000
   1388 O          22.9477    5.3620    0.1026 O.3     1  UNL1        0.0000
   1389 O          18.3801    8.4640   -0.0641 O.3     1  UNL1        0.0000
   1390 H          19.6498    1.3185    8.3310 H       1  UNL1        0.0000
   1391 H          15.8963   -4.1066    6.3229 H       1  UNL1        0.0000
   1392 H          20.5863   10.5258    5.1167 H       1  UNL1        0.0000
   1393 H          20.6951    2.9718    6.7535 H       1  UNL1        0.0000
   1394 H          15.9676    3.5473    8.2267 H       1  UNL1        0.0000
   1395 H          12.2157   -1.9001    6.6381 H       1  UNL1        0.0000
   1396 H          17.2941    1.6206    9.0395 H       1  UNL1        0.0000
   1397 H          17.0120    5.1936    6.6355 H       1  UNL1        0.0000
   1398 H          21.8991    8.6503    4.1589 H       1  UNL1        0.0000
   1399 H           8.2812    8.9007    4.6697 H       1  UNL1        0.0000
   1400 C          18.9136    4.1781    6.6081 C.ar    1  UNL1        0.0000
   1401 C          17.7510    2.3424    8.3638 C.ar    1  UNL1        0.0000
   1402 C          22.3753    9.3483    4.8466 C.ar    1  UNL1        0.0000
   1403 C          14.1193   -2.9095    6.5651 C.2     1  UNL1        0.0000
   1404 C          17.5794    4.3491    7.0216 C.ar    1  UNL1        0.0000
   1405 C          19.0827    2.1724    7.9632 C.ar    1  UNL1        0.0000
   1406 C          21.6365   10.4119    5.3820 C.ar    1  UNL1        0.0000
   1407 C          14.8542   -3.9852    6.0335 C.3     1  UNL1        0.0000
   1408 C          23.7240    9.1779    5.1834 C.ar    1  UNL1        0.0000
   1409 C          12.7670   -2.7368    6.2144 C.3     1  UNL1        0.0000
   1410 C          19.6666    3.0902    7.0884 C.ar    1  UNL1        0.0000
   1411 C          17.0009    3.4319    7.9015 C.ar    1  UNL1        0.0000
   1412 H          16.0895    5.1520   12.5170 H      30  UNL30       0.0000
   1413 H          17.6408    3.7570   10.6621 H      30  UNL30       0.0000
   1414 C          16.8841    4.4296   12.6539 C.2    30  UNL30       0.0000
   1415 H          20.2658    3.5156   10.3864 H      30  UNL30       0.0000
   1416 C          17.6465    3.7462   11.7449 C.2    30  UNL30       0.0000
   1417 H          16.2329    5.4440   15.0434 H      30  UNL30       0.0000
   1418 N          17.2994    4.0366   13.9142 N.pl3  30  UNL30       0.0000
   1419 C          20.6720    2.9361   11.2252 C.3    30  UNL30       0.0000
   1420 H          21.1449    3.6240   11.9372 H      30  UNL30       0.0000
   1421 C          16.7201    4.4760   15.1910 C.3    30  UNL30       0.0000
   1422 N          18.5157    2.9455   12.4656 N.pl3  30  UNL30       0.0000
   1423 H          15.9791    3.7391   15.5268 H      30  UNL30       0.0000
   1424 H          21.4412    2.2573   10.8291 H      30  UNL30       0.0000
   1425 C          18.2882    3.1323   13.7793 C.3    30  UNL30       0.0000
   1426 C          19.5873    2.1007   11.8981 C.3    30  UNL30       0.0000
   1427 H          19.1226    1.3918   11.1998 H      30  UNL30       0.0000
   1428 H          17.5168    4.5714   15.9350 H      30  UNL30       0.0000
   1429 H          18.8086    2.6359   14.5895 H      30  UNL30       0.0000
   1430 H          19.9913    1.5185   12.7328 H      30  UNL30       0.0000
   1431 TI          8.8414   -5.0094   24.3567 Ti      1  UNL1        0.0000
   1432 TI         19.6719   -2.1282   14.9919 Ti      1  UNL1        0.0000
   1433 TI         12.9381   -8.9456   22.5367 Ti      1  UNL1        0.0000
   1434 TI         14.4493    0.2165   16.7637 Ti      1  UNL1        0.0000
   1435 TI         13.4507    1.8948   14.8593 Ti      1  UNL1        0.0000
   1436 TI         14.8263   -9.2000   24.4901 Ti      1  UNL1        0.0000
   1437 TI          9.7906   -6.7453   22.4652 Ti      1  UNL1        0.0000
   1438 TI         17.6841   -1.8257   16.8393 Ti      1  UNL1        0.0000
   1439 H           9.3433   -1.1124   24.1372 H       1  UNL1        0.0000
   1440 H          20.4807   -6.0343   15.3125 H       1  UNL1        0.0000
   1441 H           4.8815   -5.7661   23.9742 H       1  UNL1        0.0000
   1442 H          23.0540   -0.1239   15.1925 H       1  UNL1        0.0000
   1443 H          15.8019  -13.2345   24.1041 H       1  UNL1        0.0000
   1444 H           9.3922    1.3049   15.1813 H       1  UNL1        0.0000
   1445 H          13.9452    0.2580   12.9862 H       1  UNL1        0.0000
   1446 H          17.7964   -2.3709   13.2919 H       1  UNL1        0.0000
   1447 H          15.3362   -9.8671   18.9790 H       1  UNL1        0.0000
   1448 H          12.7259    2.0535   20.3826 H       1  UNL1        0.0000
   1449 H           5.7180   -3.3567   22.1093 H       1  UNL1        0.0000
   1450 H          22.4267   -4.2126   17.2979 H       1  UNL1        0.0000
   1451 H           8.0191   -4.8041   18.7754 H       1  UNL1        0.0000
   1452 H          10.3506    3.7227   17.2125 H       1  UNL1        0.0000
   1453 H          13.8430    4.9976   15.7147 H       1  UNL1        0.0000
   1454 H          20.3228   -8.0531   16.5150 H      54  UNL54       0.0000
   1455 H          16.5419   -0.1034   15.4250 H       1  UNL1        0.0000
   1456 H          11.8574   -7.0972   23.8303 H       1  UNL1        0.0000
   1457 H          19.0611   -7.2651   22.8797 H       1  UNL1        0.0000
   1458 H          17.5799   -7.7342   23.6271 H       1  UNL1        0.0000
   1459 H          19.6352   -2.8315   21.7808 H       1  UNL1        0.0000
   1460 H          19.0655   -2.4729   20.1623 H       1  UNL1        0.0000
   1461 H          18.5722  -12.2200   22.6897 H       1  UNL1        0.0000
   1462 H          17.2931  -11.1194   23.1471 H       1  UNL1        0.0000
   1463 C          20.2499   -2.8695   17.8554 C.3     1  UNL1        0.0000
   1464 C           7.8809   -4.7481   21.5096 C.3     1  UNL1        0.0000
   1465 C          15.5186   -9.9563   21.6120 C.3     1  UNL1        0.0000
   1466 C          12.5132    2.1870   17.7230 C.3     1  UNL1        0.0000
   1467 C          21.1460   -3.4738   18.8506 C.ar    1  UNL1        0.0000
   1468 C           6.9490   -4.1230   20.5326 C.ar    1  UNL1        0.0000
   1469 C          16.4588  -10.5707   20.6648 C.2     1  UNL1        0.0000
   1470 C          11.6234    2.8338   18.7228 C.ar    1  UNL1        0.0000
   1471 C          20.8972   -3.3989   20.2570 C.ar    1  UNL1        0.0000
   1472 C           7.1654   -4.2430   19.1446 C.ar    1  UNL1        0.0000
   1473 C          17.5883  -11.3310   21.1178 C.2     1  UNL1        0.0000
   1474 C          10.5286    3.6068   18.2779 C.ar    1  UNL1        0.0000
   1475 C          11.8779    2.6630   20.0777 C.ar    1  UNL1        0.0000
   1476 C          16.2111  -10.4386   19.2809 C.3     1  UNL1        0.0000
   1477 C          22.2796   -4.1728   18.3749 C.ar    1  UNL1        0.0000
   1478 C           5.8488   -3.4306   21.0313 C.ar    1  UNL1        0.0000
   1479 C          20.4617   -5.9552   13.1685 C.2     1  UNL1        0.0000
   1480 C          13.9920    5.8364   13.1935 C.ar    1  UNL1        0.0000
   1481 C          22.9461   -0.1921   13.0424 C.ar    1  UNL1        0.0000
   1482 C           9.5878    1.3503   13.0231 C.ar    1  UNL1        0.0000
   1483 C          15.1960   -2.1267   18.7283 C.3     1  UNL1        0.0000
   1484 C          10.4399   -9.2211   20.6464 C.2     1  UNL1        0.0000
   1485 C          20.3258   -4.5004   13.1453 C.2     1  UNL1        0.0000
   1486 C          13.8992    4.4029   13.1560 C.3     1  UNL1        0.0000
   1487 C          21.6483   -0.8089   13.0893 C.3     1  UNL1        0.0000
   1488 C          10.9901    1.7647   13.0475 C.3     1  UNL1        0.0000
   1489 C          20.5011   -6.6243   14.3981 C.3     1  UNL1        0.0000
   1490 C           9.3542   -0.5240   25.0511 C.ar    1  UNL1        0.0000
   1491 C          23.6014    0.0827   14.2764 C.ar    1  UNL1        0.0000
   1492 C           4.3200   -5.9454   24.8896 C.ar    1  UNL1        0.0000
   1493 C          19.0058   -6.9898   24.9041 C.ar    1  UNL1        0.0000
   1494 C           8.8906    1.1199   14.2355 C.ar    1  UNL1        0.0000
   1495 C          15.8436  -13.7617   25.0532 C.3     1  UNL1        0.0000
   1496 C          14.0058    6.5876   14.4227 C.ar    1  UNL1        0.0000
   1497 N          14.0608    5.9887   15.6609 N.pl3   1  UNL1        0.0000
   1498 N          18.4268   -7.1726   23.6651 N.pl3   1  UNL1        0.0000
   1499 N          19.8163   -2.7526   20.7883 N.pl3   1  UNL1        0.0000
   1500 N          17.9193  -11.4892   22.4352 N.pl3   1  UNL1        0.0000
   1501 O          19.0736   -2.4644   18.2212 O.3     1  UNL1        0.0000
   1502 O           8.6499   -5.6989   21.1114 O.3     1  UNL1        0.0000
   1503 O          15.9001   -9.8319   22.8331 O.3     1  UNL1        0.0000
   1504 O          12.4473    2.6167   16.5234 O.3     1  UNL1        0.0000
   1505 O          13.2836    1.2298   18.1095 O.3     1  UNL1        0.0000
   1506 O          14.3482   -9.5879   21.2065 O.3     1  UNL1        0.0000
   1507 O          20.6618   -2.7887   16.6436 O.3     1  UNL1        0.0000
   1508 O           7.8389   -4.3118   22.7094 O.3     1  UNL1        0.0000
   1509 O          17.9893   -3.0436   15.6446 O.3     1  UNL1        0.0000
   1510 O          10.3431   -5.1850   23.2097 O.3     1  UNL1        0.0000
   1511 O          18.9281   -0.7563   16.0946 O.3     1  UNL1        0.0000
   1512 O           8.5909   -6.9097   23.7024 O.3     1  UNL1        0.0000
   1513 O          13.1974  -10.1176   23.7971 O.3     1  UNL1        0.0000
   1514 O          14.9658    1.7778   16.0252 O.3     1  UNL1        0.0000
   1515 O          14.1514   -7.8561   23.3329 O.3     1  UNL1        0.0000
   1516 O          13.2596    0.0207   15.5078 O.3     1  UNL1        0.0000
   1517 O          16.4171   -2.3065   18.3740 O.3     1  UNL1        0.0000
   1518 O           9.7823   -8.1861   21.0246 O.2     1  UNL1        0.0000
   1519 O          15.5686  -10.9718   25.0992 O.2     1  UNL1        0.0000
   1520 O          13.8161    3.7014   14.2512 O.3     1  UNL1        0.0000
   1521 O          16.3708   -8.1837   25.0940 O.3     1  UNL1        0.0000
   1522 O          11.5802    1.8657   14.1911 O.3     1  UNL1        0.0000
   1523 O          11.6017   -9.5156   21.1042 O.2     1  UNL1        0.0000
   1524 O          14.4542   -1.2058   18.2349 O.3     1  UNL1        0.0000
   1525 O          21.1090   -1.1091   14.2373 O.3     1  UNL1        0.0000
   1526 O           6.9546   -5.0695   25.0251 O.3     1  UNL1        0.0000
   1527 O          20.3134   -3.8634   14.2667 O.2     1  UNL1        0.0000
   1528 O           9.2228   -3.2872   25.1064 O.3     1  UNL1        0.0000
   1529 O          16.1811   -0.6521   16.1457 O.3     1  UNL1        0.0000
   1530 O          11.4792   -7.6559   23.1267 O.3     1  UNL1        0.0000
   1531 O          18.6352   -1.8772   13.2129 O.3     1  UNL1        0.0000
   1532 O          14.0675    1.2248   13.0462 O.3     1  UNL1        0.0000
   1533 H          15.3372   -5.9207   21.4413 H       1  UNL1        0.0000
   1534 H          11.5837  -11.3458   19.4331 H       1  UNL1        0.0000
   1535 H          16.2738    3.2866   18.2269 H       1  UNL1        0.0000
   1536 H          16.3826   -4.2674   19.8637 H       1  UNL1        0.0000
   1537 H          11.6550   -3.6919   21.3370 H       1  UNL1        0.0000
   1538 H           7.9031   -9.1393   19.7483 H       1  UNL1        0.0000
   1539 H          12.9816   -5.6186   22.1497 H       1  UNL1        0.0000
   1540 H          12.6995   -2.0456   19.7458 H       1  UNL1        0.0000
   1541 H          17.5866    1.4111   17.2691 H       1  UNL1        0.0000
   1542 H           3.9687    1.6615   17.7800 H       1  UNL1        0.0000
   1543 C          14.6011   -3.0611   19.7184 C.ar    1  UNL1        0.0000
   1544 C          13.4385   -4.8968   21.4741 C.ar    1  UNL1        0.0000
   1545 C          18.0628    2.1091   17.9569 C.ar    1  UNL1        0.0000
   1546 C           9.8068  -10.1487   19.6754 C.2     1  UNL1        0.0000
   1547 C          13.2669   -2.8901   20.1319 C.ar    1  UNL1        0.0000
   1548 C          14.7701   -5.0668   21.0735 C.ar    1  UNL1        0.0000
   1549 C          17.3239    3.1727   18.4922 C.ar    1  UNL1        0.0000
   1550 C          10.5417  -11.2244   19.1438 C.3     1  UNL1        0.0000
   1551 C          19.4114    1.9387   18.2937 C.ar    1  UNL1        0.0000
   1552 C           8.4545   -9.9760   19.3247 C.3     1  UNL1        0.0000
   1553 C          15.3541   -4.1490   20.1986 C.ar    1  UNL1        0.0000
   1554 C          12.6884   -3.8073   21.0117 C.ar    1  UNL1        0.0000
   1555 H          11.7769   -2.0872   25.6273 H      32  UNL32       0.0000
   1556 H          13.3283   -3.4822   23.7724 H      32  UNL32       0.0000
   1557 C          12.5716   -2.8096   25.7642 C.2    32  UNL32       0.0000
   1558 H          15.9532   -3.7236   23.4967 H      32  UNL32       0.0000
   1559 C          13.3339   -3.4930   24.8552 C.2    32  UNL32       0.0000
   1560 H          11.9203   -1.7952   28.1536 H      32  UNL32       0.0000
   1561 N          12.9869   -3.2026   27.0245 N.pl3  32  UNL32       0.0000
   1562 C          16.3594   -4.3031   24.3354 C.3    32  UNL32       0.0000
   1563 H          16.8323   -3.6152   25.0474 H      32  UNL32       0.0000
   1564 C          12.4076   -2.7632   28.3013 C.3    32  UNL32       0.0000
   1565 N          14.2032   -4.2937   25.5759 N.pl3  32  UNL32       0.0000
   1566 H          11.6665   -3.5001   28.6371 H      32  UNL32       0.0000
   1567 H          17.1286   -4.9819   23.9394 H      32  UNL32       0.0000
   1568 C          13.9757   -4.1069   26.8896 C.3    32  UNL32       0.0000
   1569 C          15.2748   -5.1385   25.0084 C.3    32  UNL32       0.0000
   1570 H          14.8101   -5.8474   24.3101 H      32  UNL32       0.0000
   1571 H          13.2043   -2.6678   29.0453 H      32  UNL32       0.0000
   1572 H          14.4961   -4.6033   27.6998 H      32  UNL32       0.0000
   1573 H          15.6788   -5.7207   25.8431 H      32  UNL32       0.0000
   1574 TI          4.5289  -12.2486   37.4669 Ti      1  UNL1        0.0000
   1575 TI         15.3594   -9.3674   28.1021 Ti      1  UNL1        0.0000
   1576 TI          8.6256  -16.1848   35.6470 Ti      1  UNL1        0.0000
   1577 TI         10.1368   -7.0227   29.8739 Ti      1  UNL1        0.0000
   1578 TI          9.1382   -5.3444   27.9695 Ti      1  UNL1        0.0000
   1579 TI         10.5138  -16.4392   37.6003 Ti      1  UNL1        0.0000
   1580 TI          5.4781  -13.9845   35.5755 Ti      1  UNL1        0.0000
   1581 TI         13.3715   -9.0649   29.9496 Ti      1  UNL1        0.0000
   1582 H           5.0308   -8.3516   37.2475 H      14  UNL14       0.0000
   1583 H          16.1681  -13.2735   28.4228 H       1  UNL1        0.0000
   1584 H           0.5690  -13.0053   37.0845 H       3  UNL3        0.0000
   1585 H          18.7415   -7.3631   28.3028 H       1  UNL1        0.0000
   1586 H          11.4894  -20.4737   37.2144 H      16  UNL16       0.0000
   1587 H           5.0797   -5.9343   28.2916 H       1  UNL1        0.0000
   1588 H           9.6327   -6.9812   26.0965 H       1  UNL1        0.0000
   1589 H          13.4838   -9.6101   26.4022 H       1  UNL1        0.0000
   1590 H          11.0237  -17.1063   32.0892 H       1  UNL1        0.0000
   1591 H           8.4133   -5.1857   33.4929 H       1  UNL1        0.0000
   1592 H           1.4055  -10.5959   35.2196 H       1  UNL1        0.0000
   1593 H          18.1141  -11.4518   30.4081 H       1  UNL1        0.0000
   1594 H           3.7066  -12.0433   31.8857 H       1  UNL1        0.0000
   1595 H           6.0381   -3.5165   30.3228 H       1  UNL1        0.0000
   1596 H           9.5304   -2.2416   28.8250 H       1  UNL1        0.0000
   1597 H          16.0103  -15.2923   29.6253 H      54  UNL54       0.0000
   1598 H          12.2294   -7.3426   28.5353 H       1  UNL1        0.0000
   1599 H           7.5449  -14.3364   36.9406 H       1  UNL1        0.0000
   1600 H          14.7485  -14.5043   35.9900 H      15  UNL15       0.0000
   1601 H          13.2674  -14.9734   36.7373 H      15  UNL15       0.0000
   1602 H          15.3226  -10.0707   34.8911 H       1  UNL1        0.0000
   1603 H          14.7529   -9.7121   33.2726 H       1  UNL1        0.0000
   1604 H          14.2597  -19.4592   35.8000 H       1  UNL1        0.0000
   1605 H          12.9806  -18.3586   36.2574 H       1  UNL1        0.0000
   1606 C          15.9374  -10.1087   30.9657 C.3     1  UNL1        0.0000
   1607 C           3.5683  -11.9873   34.6199 C.3     1  UNL1        0.0000
   1608 C          11.2061  -17.1955   34.7222 C.3     1  UNL1        0.0000
   1609 C           8.2007   -5.0522   30.8333 C.3     1  UNL1        0.0000
   1610 C          16.8334  -10.7130   31.9609 C.ar    1  UNL1        0.0000
   1611 C           2.6364  -11.3622   33.6429 C.ar    1  UNL1        0.0000
   1612 C          12.1463  -17.8099   33.7751 C.2     1  UNL1        0.0000
   1613 C           7.3108   -4.4054   31.8331 C.ar    1  UNL1        0.0000
   1614 C          16.5847  -10.6381   33.3673 C.ar    1  UNL1        0.0000
   1615 C           2.8528  -11.4822   32.2548 C.ar    1  UNL1        0.0000
   1616 C          13.2757  -18.5702   34.2281 C.2     1  UNL1        0.0000
   1617 C           6.2161   -3.6324   31.3882 C.ar    1  UNL1        0.0000
   1618 C           7.5653   -4.5762   33.1880 C.ar    1  UNL1        0.0000
   1619 C          11.8986  -17.6778   32.3911 C.3     1  UNL1        0.0000
   1620 C          17.9671  -11.4120   31.4851 C.ar    1  UNL1        0.0000
   1621 C           1.5363  -10.6698   34.1415 C.ar    1  UNL1        0.0000
   1622 C          16.1492  -13.1944   26.2787 C.2     1  UNL1        0.0000
   1623 C           9.6794   -1.4028   26.3037 C.ar    1  UNL1        0.0000
   1624 C          18.6336   -7.4313   26.1527 C.ar    1  UNL1        0.0000
   1625 C           5.2753   -5.8889   26.1333 C.ar    1  UNL1        0.0000
   1626 C          10.8835   -9.3659   31.8385 C.3     1  UNL1        0.0000
   1627 C           6.1274  -16.4603   33.7567 C.2     1  UNL1        0.0000
   1628 C          16.0133  -11.7396   26.2555 C.2     1  UNL1        0.0000
   1629 C           9.5867   -2.8363   26.2662 C.3     1  UNL1        0.0000
   1630 C          17.3358   -8.0481   26.1996 C.3     1  UNL1        0.0000
   1631 C           6.6776   -5.4745   26.1578 C.3     1  UNL1        0.0000
   1632 C          16.1885  -13.8635   27.5084 C.3     1  UNL1        0.0000
   1633 C           5.0417   -7.7632   38.1614 C.3    14  UNL14       0.0000
   1634 C          19.2889   -7.1565   27.3867 C.ar    1  UNL1        0.0000
   1635 C           0.0075  -13.1846   37.9999 C.3     3  UNL3        0.0000
   1636 C          14.6933  -14.2290   38.0143 C.3    15  UNL15       0.0000
   1637 C           4.5781   -6.1193   27.3458 C.ar    1  UNL1        0.0000
   1638 C          11.5310  -21.0009   38.1635 C.3    34  UNL34       0.0000
   1639 C           9.6932   -0.6516   27.5330 C.ar    1  UNL1        0.0000
   1640 N           9.7483   -1.2505   28.7712 N.pl3   1  UNL1        0.0000
   1641 N          14.1142  -14.4118   36.7754 N.3    15  UNL15       0.0000
   1642 N          15.5038   -9.9918   33.8986 N.pl3   1  UNL1        0.0000
   1643 N          13.6067  -18.7284   35.5455 N.pl3   1  UNL1        0.0000
   1644 O          14.7611   -9.7036   31.3315 O.3     1  UNL1        0.0000
   1645 O           4.3373  -12.9381   34.2216 O.3     1  UNL1        0.0000
   1646 O          11.5875  -17.0711   35.9434 O.3     1  UNL1        0.0000
   1647 O           8.1348   -4.6225   29.6337 O.3     1  UNL1        0.0000
   1648 O           8.9711   -6.0094   31.2197 O.3     1  UNL1        0.0000
   1649 O          10.0357  -16.8271   34.3167 O.3     1  UNL1        0.0000
   1650 O          16.3493  -10.0279   29.7539 O.3     1  UNL1        0.0000
   1651 O           3.5263  -11.5510   35.8196 O.3     1  UNL1        0.0000
   1652 O          13.6768  -10.2828   28.7549 O.3     1  UNL1        0.0000
   1653 O           6.0306  -12.4242   36.3200 O.3     1  UNL1        0.0000
   1654 O          14.6156   -7.9955   29.2049 O.3     1  UNL1        0.0000
   1655 O           4.2784  -14.1489   36.8127 O.3     1  UNL1        0.0000
   1656 O           8.8849  -17.3568   36.9074 O.3     1  UNL1        0.0000
   1657 O          10.6533   -5.4614   29.1355 O.3     1  UNL1        0.0000
   1658 O           9.8388  -15.0953   36.4432 O.3     1  UNL1        0.0000
   1659 O           8.9471   -7.2185   28.6180 O.3     1  UNL1        0.0000
   1660 O          12.1046   -9.5458   31.4843 O.3     1  UNL1        0.0000
   1661 O           5.4697  -15.4253   34.1349 O.2     1  UNL1        0.0000
   1662 O          11.2561  -18.2110   38.2094 O.3     1  UNL1        0.0000
   1663 O           9.5036   -3.5378   27.3614 O.3     1  UNL1        0.0000
   1664 O          12.0582  -15.4229   38.2043 O.3     1  UNL1        0.0000
   1665 O           7.2676   -5.3735   27.3014 O.3     1  UNL1        0.0000
   1666 O           7.2892  -16.7548   34.2145 O.2     1  UNL1        0.0000
   1667 O          10.1417   -8.4450   31.3452 O.3     1  UNL1        0.0000
   1668 O          16.7964   -8.3483   27.3476 O.3     1  UNL1        0.0000
   1669 O           2.6421  -12.3087   38.1354 O.3     1  UNL1        0.0000
   1670 O          16.0009  -11.1026   27.3770 O.2     1  UNL1        0.0000
   1671 O           4.9103  -10.5264   38.2167 O.3     1  UNL1        0.0000
   1672 O          11.8686   -7.8913   29.2560 O.3     1  UNL1        0.0000
   1673 O           7.1666  -14.8951   36.2370 O.3     1  UNL1        0.0000
   1674 O          14.3227   -9.1165   26.3232 O.3     1  UNL1        0.0000
   1675 O           9.7550   -6.0144   26.1564 O.3     1  UNL1        0.0000
   1676 H          11.0247  -13.1599   34.5516 H       1  UNL1        0.0000
   1677 H           7.2712  -18.5850   32.5434 H       1  UNL1        0.0000
   1678 H          11.9613   -3.9526   31.3372 H       1  UNL1        0.0000
   1679 H          12.0701  -11.5066   32.9740 H       1  UNL1        0.0000
   1680 H           7.3425  -10.9312   34.4472 H       1  UNL1        0.0000
   1681 H           3.5906  -16.3785   32.8586 H       1  UNL1        0.0000
   1682 H           8.6691  -12.8578   35.2600 H       1  UNL1        0.0000
   1683 H           8.3869   -9.2848   32.8560 H       1  UNL1        0.0000
   1684 H          13.2741   -5.8281   30.3794 H       1  UNL1        0.0000
   1685 H          -0.3438   -5.5777   30.8903 H       1  UNL1        0.0000
   1686 C          10.2886  -10.3003   32.8287 C.ar    1  UNL1        0.0000
   1687 C           9.1260  -12.1360   34.5844 C.ar    1  UNL1        0.0000
   1688 C          13.7503   -5.1301   31.0672 C.ar    1  UNL1        0.0000
   1689 C           5.4942  -17.3879   32.7857 C.2     1  UNL1        0.0000
   1690 C           8.9544  -10.1293   33.2422 C.ar    1  UNL1        0.0000
   1691 C          10.4576  -12.3060   34.1838 C.ar    1  UNL1        0.0000
   1692 C          13.0114   -4.0665   31.6025 C.ar    1  UNL1        0.0000
   1693 C           6.2292  -18.4636   32.2540 C.3     1  UNL1        0.0000
   1694 C          15.0989   -5.3005   31.4039 C.ar    1  UNL1        0.0000
   1695 C           4.1420  -17.2152   32.4349 C.3     1  UNL1        0.0000
   1696 C          11.0415  -11.3882   33.3089 C.ar    1  UNL1        0.0000
   1697 C           8.3758  -11.0465   34.1220 C.ar    1  UNL1        0.0000
   1698 H           7.4644   -9.3264   38.7376 H      35  UNL35       0.0000
   1699 H           9.0158  -10.7214   36.8827 H      35  UNL35       0.0000
   1700 C           8.2590  -10.0488   38.8745 C.2    35  UNL35       0.0000
   1701 H          11.6407  -10.9628   36.6070 H      35  UNL35       0.0000
   1702 C           9.0214  -10.7322   37.9655 C.2    35  UNL35       0.0000
   1703 H           7.6078   -9.0344   41.2639 H      35  UNL35       0.0000
   1704 N           8.6743  -10.4418   40.1347 N.pl3  35  UNL35       0.0000
   1705 C          12.0469  -11.5423   37.4457 C.3    35  UNL35       0.0000
   1706 H          12.5198  -10.8544   38.1577 H      35  UNL35       0.0000
   1707 C           8.0951  -10.0024   41.4116 C.3    35  UNL35       0.0000
   1708 N           9.8907  -11.5329   38.6862 N.pl3  35  UNL35       0.0000
   1709 H           7.3540  -10.7393   41.7474 H      35  UNL35       0.0000
   1710 H          12.8161  -12.2211   37.0497 H      35  UNL35       0.0000
   1711 C           9.6631  -11.3461   39.9998 C.3    35  UNL35       0.0000
   1712 C          10.9622  -12.3777   38.1186 C.3    35  UNL35       0.0000
   1713 H          10.4975  -13.0866   37.4204 H      35  UNL35       0.0000
   1714 H           8.8917   -9.9070   42.1555 H      35  UNL35       0.0000
   1715 H          10.1836  -11.8425   40.8101 H      35  UNL35       0.0000
   1716 H          11.3663  -12.9599   38.9534 H      35  UNL35       0.0000
   1717 TI          6.1320   16.6066   11.2464 Ti      1  UNL1        0.0000
   1718 TI         16.9625   19.4878    1.8816 Ti      1  UNL1        0.0000
   1719 TI         10.2287   12.6704    9.4264 Ti      1  UNL1        0.0000
   1720 TI         11.7399   21.8325    3.6534 Ti      1  UNL1        0.0000
   1721 TI         10.7413   23.5108    1.7490 Ti      1  UNL1        0.0000
   1722 TI         12.1169   12.4160   11.3798 Ti      1  UNL1        0.0000
   1723 TI          7.0812   14.8707    9.3549 Ti      1  UNL1        0.0000
   1724 TI         14.9747   19.7903    3.7291 Ti      1  UNL1        0.0000
   1725 H           6.6339   20.5037   11.0269 H       1  UNL1        0.0000
   1726 H          17.7713   15.5817    2.2023 H       1  UNL1        0.0000
   1727 H           2.1721   15.8499   10.8639 H       1  UNL1        0.0000
   1728 H          20.3446   21.4921    2.0822 H       1  UNL1        0.0000
   1729 H          13.0925    8.3815   10.9939 H       1  UNL1        0.0000
   1730 H           6.6828   22.9209    2.0711 H       1  UNL1        0.0000
   1731 H          11.2358   21.8740   -0.1241 H       1  UNL1        0.0000
   1732 H          15.0870   19.2451    0.1817 H       1  UNL1        0.0000
   1733 H          12.6268   11.7489    5.8687 H       1  UNL1        0.0000
   1734 H          10.0165   23.6695    7.2723 H       1  UNL1        0.0000
   1735 H           3.0086   18.2593    8.9990 H       1  UNL1        0.0000
   1736 H          19.7172   17.4035    4.1876 H       1  UNL1        0.0000
   1737 H           5.3097   16.8119    5.6652 H       1  UNL1        0.0000
   1738 H           7.6412   25.3387    4.1022 H       1  UNL1        0.0000
   1739 H          11.1336   26.6137    2.6045 H       1  UNL1        0.0000
   1740 H          17.6134   13.5629    3.4048 H       1  UNL1        0.0000
   1741 H          13.8325   21.5126    2.3148 H       1  UNL1        0.0000
   1742 H           9.1480   14.5188   10.7200 H       1  UNL1        0.0000
   1743 H          16.3516   14.3509    9.7694 H       1  UNL1        0.0000
   1744 H          14.8705   13.8818   10.5168 H       1  UNL1        0.0000
   1745 H          16.9258   18.7845    8.6705 H       1  UNL1        0.0000
   1746 H          16.3561   19.1431    7.0520 H       1  UNL1        0.0000
   1747 H          15.8628    9.3961    9.5794 H       1  UNL1        0.0000
   1748 H          14.5837   10.4966   10.0368 H       1  UNL1        0.0000
   1749 C          17.5405   18.7466    4.7451 C.3     1  UNL1        0.0000
   1750 C           5.1715   16.8680    8.3994 C.3     1  UNL1        0.0000
   1751 C          12.8092   11.6597    8.5017 C.3     1  UNL1        0.0000
   1752 C           9.8038   23.8030    4.6127 C.3     1  UNL1        0.0000
   1753 C          18.4366   18.1422    5.7403 C.ar    1  UNL1        0.0000
   1754 C           4.2396   17.4930    7.4223 C.ar    1  UNL1        0.0000
   1755 C          13.7494   11.0453    7.5545 C.ar    1  UNL1        0.0000
   1756 C           8.9140   24.4498    5.6125 C.ar    1  UNL1        0.0000
   1757 C          18.1878   18.2171    7.1467 C.ar    1  UNL1        0.0000
   1758 C           4.4560   17.3730    6.0343 C.ar    1  UNL1        0.0000
   1759 C          14.8789   10.2850    8.0076 C.ar    1  UNL1        0.0000
   1760 C           7.8192   25.2228    5.1676 C.ar    1  UNL1        0.0000
   1761 C           9.1685   24.2791    6.9674 C.ar    1  UNL1        0.0000
   1762 C          13.5017   11.1775    6.1706 C.ar    1  UNL1        0.0000
   1763 C          19.5702   17.4433    5.2646 C.ar    1  UNL1        0.0000
   1764 C           3.1394   18.1854    7.9210 C.ar    1  UNL1        0.0000
   1765 C          17.7523   15.6608    0.0582 C.2     1  UNL1        0.0000
   1766 C          11.2826   27.4524    0.0832 C.2     1  UNL1        0.0000
   1767 C          20.2367   21.4239   -0.0678 C.2     1  UNL1        0.0000
   1768 C           6.8784   22.9664   -0.0872 C.2     1  UNL1        0.0000
   1769 C          12.4866   19.4893    5.6180 C.3     1  UNL1        0.0000
   1770 C           7.7305   12.3950    7.5361 C.3     1  UNL1        0.0000
   1771 C          17.6164   17.1157    0.0350 C.2     1  UNL1        0.0000
   1772 C          11.1898   26.0189    0.0457 C.2     1  UNL1        0.0000
   1773 C          18.9389   20.8071   -0.0210 C.2     1  UNL1        0.0000
   1774 C           8.2807   23.3807   -0.0628 C.2     1  UNL1        0.0000
   1775 C          17.7917   14.9917    1.2879 C.3     1  UNL1        0.0000
   1776 C           6.6448   21.0921   11.9408 C.ar    1  UNL1        0.0000
   1777 C          20.8920   21.6987    1.1661 C.3     1  UNL1        0.0000
   1778 C           1.6106   15.6706   11.7793 C.ar    1  UNL1        0.0000
   1779 C          16.2964   14.6262   11.7938 C.ar    1  UNL1        0.0000
   1780 C           6.1812   22.7359    1.1253 C.3     1  UNL1        0.0000
   1781 C          13.1342    7.8543   11.9429 C.ar    1  UNL1        0.0000
   1782 C          11.2963   28.2036    1.3125 C.3     1  UNL1        0.0000
   1783 N          11.3514   27.6047    2.5506 N.3     1  UNL1        0.0000
   1784 N          15.7174   14.4434   10.5548 N.pl3   1  UNL1        0.0000
   1785 N          17.1069   18.8634    7.6780 N.pl3   1  UNL1        0.0000
   1786 N          15.2099   10.1268    9.3250 N.pl3   1  UNL1        0.0000
   1787 O          16.3642   19.1516    5.1109 O.3     1  UNL1        0.0000
   1788 O           5.9405   15.9171    8.0011 O.3     1  UNL1        0.0000
   1789 O          13.1907   11.7842    9.7228 O.3     1  UNL1        0.0000
   1790 O           9.7379   24.2327    3.4131 O.3     1  UNL1        0.0000
   1791 O          10.5742   22.8458    4.9992 O.3     1  UNL1        0.0000
   1792 O          11.6388   12.0281    8.0962 O.3     1  UNL1        0.0000
   1793 O          17.9524   18.8273    3.5334 O.3     1  UNL1        0.0000
   1794 O           5.1295   17.3042    9.5991 O.3     1  UNL1        0.0000
   1795 O          15.2799   18.5724    2.5344 O.3     1  UNL1        0.0000
   1796 O           7.6337   16.4310   10.0994 O.3     1  UNL1        0.0000
   1797 O          16.2187   20.8597    2.9843 O.3     1  UNL1        0.0000
   1798 O           5.8815   14.7064   10.5921 O.3     1  UNL1        0.0000
   1799 O          10.4880   11.4984   10.6868 O.3     1  UNL1        0.0000
   1800 O          12.2564   23.3938    2.9149 O.3     1  UNL1        0.0000
   1801 O          11.4420   13.7599   10.2227 O.3     1  UNL1        0.0000
   1802 O          10.5502   21.6367    2.3975 O.3     1  UNL1        0.0000
   1803 O          13.7077   19.3095    5.2637 O.3     1  UNL1        0.0000
   1804 O           7.0729   13.4299    7.9143 O.3     1  UNL1        0.0000
   1805 O          12.8592   10.6442   11.9889 O.3     1  UNL1        0.0000
   1806 O          11.1067   25.3174    1.1409 O.2     1  UNL1        0.0000
   1807 O          13.6614   13.4324   11.9838 O.3     1  UNL1        0.0000
   1808 O           8.8708   23.4817    1.0808 O.2     1  UNL1        0.0000
   1809 O           8.8923   12.1004    7.9939 O.3     1  UNL1        0.0000
   1810 O          11.7448   20.4102    5.1246 O.3     1  UNL1        0.0000
   1811 O          18.3996   20.5069    1.1270 O.2     1  UNL1        0.0000
   1812 O           4.2452   16.5465   11.9148 O.3     1  UNL1        0.0000
   1813 O          17.6040   17.7526    1.1564 O.2     1  UNL1        0.0000
   1814 O           6.5134   18.3289   11.9961 O.3     1  UNL1        0.0000
   1815 O          13.4717   20.9639    3.0354 O.3     1  UNL1        0.0000
   1816 O           8.7697   13.9601   10.0165 O.3     1  UNL1        0.0000
   1817 O          15.9258   19.7388    0.1026 O.3     1  UNL1        0.0000
   1818 O          11.3581   22.8408   -0.0641 O.3     1  UNL1        0.0000
   1819 H          12.6278   15.6953    8.3310 H       1  UNL1        0.0000
   1820 H           8.8743   10.2702    6.3229 H       1  UNL1        0.0000
   1821 H          13.5644   24.9026    5.1167 H       1  UNL1        0.0000
   1822 H          13.6732   17.3487    6.7535 H       1  UNL1        0.0000
   1823 H           8.9456   17.9241    8.2267 H       1  UNL1        0.0000
   1824 H           5.1937   12.4767    6.6381 H       1  UNL1        0.0000
   1825 H          10.2722   15.9974    9.0395 H       1  UNL1        0.0000
   1826 H           9.9901   19.5704    6.6355 H       1  UNL1        0.0000
   1827 H          14.8772   23.0271    4.1589 H       1  UNL1        0.0000
   1828 H           1.2593   23.2775    4.6697 H       1  UNL1        0.0000
   1829 C          11.8917   18.5550    6.6081 C.ar    1  UNL1        0.0000
   1830 C          10.7291   16.7192    8.3638 C.ar    1  UNL1        0.0000
   1831 C          15.3534   23.7252    4.8466 C.ar    1  UNL1        0.0000
   1832 C           7.0974   11.4673    6.5651 C.ar    1  UNL1        0.0000
   1833 C          10.5575   18.7260    7.0216 C.ar    1  UNL1        0.0000
   1834 C          12.0607   16.5492    7.9632 C.ar    1  UNL1        0.0000
   1835 C          14.6145   24.7887    5.3820 C.ar    1  UNL1        0.0000
   1836 C           7.8323   10.3916    6.0335 C.ar    1  UNL1        0.0000
   1837 C          16.7020   23.5547    5.1834 C.ar    1  UNL1        0.0000
   1838 C           5.7451   11.6400    6.2144 C.ar    1  UNL1        0.0000
   1839 C          12.6447   17.4670    7.0884 C.ar    1  UNL1        0.0000
   1840 C           9.9790   17.8088    7.9015 C.ar    1  UNL1        0.0000
   1841 H           9.0675   19.5288   12.5170 H      36  UNL36       0.0000
   1842 H          10.6189   18.1338   10.6621 H      36  UNL36       0.0000
   1843 C           9.8622   18.8064   12.6539 C.2    36  UNL36       0.0000
   1844 H          13.2438   17.8924   10.3864 H      36  UNL36       0.0000
   1845 C          10.6245   18.1230   11.7449 C.2    36  UNL36       0.0000
   1846 H           9.2109   19.8208   15.0434 H      36  UNL36       0.0000
   1847 N          10.2775   18.4134   13.9142 N.pl3  36  UNL36       0.0000
   1848 C          13.6500   17.3129   11.2252 C.3    36  UNL36       0.0000
   1849 H          14.1229   18.0008   11.9372 H      36  UNL36       0.0000
   1850 C           9.6982   18.8528   15.1910 C.3    36  UNL36       0.0000
   1851 N          11.4938   17.3223   12.4656 N.pl3  36  UNL36       0.0000
   1852 H           8.9571   18.1159   15.5268 H      36  UNL36       0.0000
   1853 H          14.4192   16.6341   10.8291 H      36  UNL36       0.0000
   1854 C          11.2663   17.5092   13.7793 C.3    36  UNL36       0.0000
   1855 C          12.5654   16.4775   11.8981 C.3    36  UNL36       0.0000
   1856 H          12.1007   15.7686   11.1998 H      36  UNL36       0.0000
   1857 H          10.4949   18.9482   15.9350 H      36  UNL36       0.0000
   1858 H          11.7867   17.0127   14.5895 H      36  UNL36       0.0000
   1859 H          12.9694   15.8953   12.7328 H      36  UNL36       0.0000
   1860 TI          1.8195    9.3674   24.3567 Ti      1  UNL1        0.0000
   1861 TI         12.6500   12.2486   14.9919 Ti      1  UNL1        0.0000
   1862 TI          5.9162    5.4312   22.5367 Ti      1  UNL1        0.0000
   1863 TI          7.4274   14.5933   16.7637 Ti      1  UNL1        0.0000
   1864 TI          6.4288   16.2716   14.8593 Ti      1  UNL1        0.0000
   1865 TI          7.8044    5.1768   24.4901 Ti      1  UNL1        0.0000
   1866 TI          2.7687    7.6315   22.4652 Ti      1  UNL1        0.0000
   1867 TI         10.6621   12.5511   16.8393 Ti      1  UNL1        0.0000
   1868 H           2.3214   13.2645   24.1372 H       1  UNL1        0.0000
   1869 H          13.4587    8.3425   15.3125 H       1  UNL1        0.0000
   1870 H          -2.1404    8.6107   23.9742 H       1  UNL1        0.0000
   1871 H          16.0321   14.2529   15.1925 H       1  UNL1        0.0000
   1872 H           8.7800    1.1423   24.1041 H       1  UNL1        0.0000
   1873 H           2.3703   15.6817   15.1813 H       1  UNL1        0.0000
   1874 H           6.9232   14.6348   12.9862 H       1  UNL1        0.0000
   1875 H          10.7744   12.0059   13.2919 H       1  UNL1        0.0000
   1876 H           8.3143    4.5097   18.9790 H       1  UNL1        0.0000
   1877 H           5.7039   16.4303   20.3826 H       1  UNL1        0.0000
   1878 H          -1.3039   11.0201   22.1093 H       1  UNL1        0.0000
   1879 H          15.4047   10.1643   17.2979 H       1  UNL1        0.0000
   1880 H           0.9972    9.5727   18.7754 H       1  UNL1        0.0000
   1881 H           3.3287   18.0995   17.2125 H       1  UNL1        0.0000
   1882 H           6.8210   19.3745   15.7147 H       1  UNL1        0.0000
   1883 H          13.3009    6.3237   16.5150 H       1  UNL1        0.0000
   1884 H           9.5200   14.2734   15.4250 H       1  UNL1        0.0000
   1885 H           4.8355    7.2796   23.8303 H       1  UNL1        0.0000
   1886 H          12.0391    7.1117   22.8797 H       1  UNL1        0.0000
   1887 H          10.5580    6.6426   23.6271 H       1  UNL1        0.0000
   1888 H          12.6132   11.5453   21.7808 H       1  UNL1        0.0000
   1889 H          12.0435   11.9039   20.1623 H       1  UNL1        0.0000
   1890 H          11.5503    2.1569   22.6897 H       1  UNL1        0.0000
   1891 H          10.2712    3.2574   23.1471 H       1  UNL1        0.0000
   1892 C          13.2280   11.5073   17.8554 C.3     1  UNL1        0.0000
   1893 C           0.8589    9.6288   21.5096 C.3     1  UNL1        0.0000
   1894 C           8.4967    4.4205   21.6120 C.3     1  UNL1        0.0000
   1895 C           5.4912   16.5638   17.7230 C.3     1  UNL1        0.0000
   1896 C          14.1240   10.9030   18.8506 C.ar    1  UNL1        0.0000
   1897 C          -0.0730   10.2538   20.5326 C.ar    1  UNL1        0.0000
   1898 C           9.4369    3.8061   20.6648 C.ar    1  UNL1        0.0000
   1899 C           4.6014   17.2106   18.7228 C.ar    1  UNL1        0.0000
   1900 C          13.8753   10.9779   20.2570 C.ar    1  UNL1        0.0000
   1901 C           0.1434   10.1338   19.1446 C.ar    1  UNL1        0.0000
   1902 C          10.5663    3.0458   21.1178 C.ar    1  UNL1        0.0000
   1903 C           3.5067   17.9836   18.2779 C.ar    1  UNL1        0.0000
   1904 C           4.8559   17.0399   20.0777 C.ar    1  UNL1        0.0000
   1905 C           9.1892    3.9383   19.2809 C.ar    1  UNL1        0.0000
   1906 C          15.2577   10.2040   18.3749 C.ar    1  UNL1        0.0000
   1907 C          -1.1731   10.9462   21.0313 C.ar    1  UNL1        0.0000
   1908 C          13.4398    8.4216   13.1685 C.ar    1  UNL1        0.0000
   1909 C           6.9700   20.2132   13.1935 C.ar    1  UNL1        0.0000
   1910 C          15.9242   14.1847   13.0424 C.ar    1  UNL1        0.0000
   1911 C           2.5659   15.7272   13.0231 C.ar    1  UNL1        0.0000
   1912 C           8.1741   12.2501   18.7283 C.3     1  UNL1        0.0000
   1913 C           3.4180    5.1558   20.6464 C.3     1  UNL1        0.0000
   1914 C          13.3039    9.8765   13.1453 C.3     1  UNL1        0.0000
   1915 C           6.8773   18.7797   13.1560 C.3     1  UNL1        0.0000
   1916 C          14.6264   13.5679   13.0893 C.3     1  UNL1        0.0000
   1917 C           3.9682   16.1415   13.0475 C.3     1  UNL1        0.0000
   1918 C          13.4791    7.7525   14.3981 C.ar    1  UNL1        0.0000
   1919 C           2.3323   13.8529   25.0511 C.ar    1  UNL1        0.0000
   1920 C          16.5795   14.4595   14.2764 C.ar    1  UNL1        0.0000
   1921 C          -2.7019    8.4314   24.8896 C.ar    1  UNL1        0.0000
   1922 C          11.9839    7.3870   24.9041 C.ar    1  UNL1        0.0000
   1923 C           1.8687   15.4967   14.2355 C.ar    1  UNL1        0.0000
   1924 C           8.8216    0.6151   25.0532 C.ar    1  UNL1        0.0000
   1925 C           6.9838   20.9644   14.4227 C.ar    1  UNL1        0.0000
   1926 N           7.0389   20.3655   15.6609 N.pl3   1  UNL1        0.0000
   1927 N          11.4048    7.2042   23.6651 N.pl3   1  UNL1        0.0000
   1928 N          12.7944   11.6242   20.7883 N.pl3   1  UNL1        0.0000
   1929 N          10.8973    2.8876   22.4352 N.pl3   1  UNL1        0.0000
   1930 O          12.0517   11.9124   18.2212 O.3     1  UNL1        0.0000
   1931 O           1.6279    8.6779   21.1114 O.3     1  UNL1        0.0000
   1932 O           8.8781    4.5450   22.8331 O.3     1  UNL1        0.0000
   1933 O           5.4254   16.9935   16.5234 O.3     1  UNL1        0.0000
   1934 O           6.2617   15.6066   18.1095 O.3     1  UNL1        0.0000
   1935 O           7.3263    4.7889   21.2065 O.3     1  UNL1        0.0000
   1936 O          13.6399   11.5881   16.6436 O.3     1  UNL1        0.0000
   1937 O           0.8169   10.0650   22.7094 O.3     1  UNL1        0.0000
   1938 O          10.9674   11.3332   15.6446 O.3     1  UNL1        0.0000
   1939 O           3.3211    9.1918   23.2097 O.3     1  UNL1        0.0000
   1940 O          11.9062   13.6205   16.0946 O.3     1  UNL1        0.0000
   1941 O           1.5690    7.4672   23.7024 O.3     1  UNL1        0.0000
   1942 O           6.1755    4.2592   23.7971 O.3     1  UNL1        0.0000
   1943 O           7.9439   16.1546   16.0252 O.3     1  UNL1        0.0000
   1944 O           7.1294    6.5207   23.3329 O.3     1  UNL1        0.0000
   1945 O           6.2377   14.3975   15.5078 O.3     1  UNL1        0.0000
   1946 O           9.3952   12.0703   18.3740 O.3     1  UNL1        0.0000
   1947 O           2.7603    6.1907   21.0246 O.3     1  UNL1        0.0000
   1948 O           8.5467    3.4050   25.0992 O.3     1  UNL1        0.0000
   1949 O           6.7942   18.0782   14.2512 O.3     1  UNL1        0.0000
   1950 O           9.3488    6.1932   25.0940 O.3     1  UNL1        0.0000
   1951 O           4.5582   16.2425   14.1911 O.3     1  UNL1        0.0000
   1952 O           4.5798    4.8612   21.1042 O.3     1  UNL1        0.0000
   1953 O           7.4322   13.1710   18.2349 O.3     1  UNL1        0.0000
   1954 O          14.0870   13.2677   14.2373 O.3     1  UNL1        0.0000
   1955 O          -0.0673    9.3073   25.0251 O.3     1  UNL1        0.0000
   1956 O          13.2915   10.5134   14.2667 O.3     1  UNL1        0.0000
   1957 O           2.2009   11.0897   25.1064 O.3     1  UNL1        0.0000
   1958 O           9.1592   13.7247   16.1457 O.3     1  UNL1        0.0000
   1959 O           4.4572    6.7209   23.1267 O.3     1  UNL1        0.0000
   1960 O          11.6133   12.4996   13.2129 O.3     1  UNL1        0.0000
   1961 O           7.0456   15.6016   13.0462 O.3     1  UNL1        0.0000
   1962 H           8.3153    8.4561   21.4413 H       1  UNL1        0.0000
   1963 H           4.5618    3.0310   19.4331 H       1  UNL1        0.0000
   1964 H           9.2519   17.6634   18.2269 H       1  UNL1        0.0000
   1965 H           9.3606   10.1094   19.8637 H       1  UNL1        0.0000
   1966 H           4.6331   10.6849   21.3370 H       1  UNL1        0.0000
   1967 H           0.8812    5.2375   19.7483 H       1  UNL1        0.0000
   1968 H           5.9597    8.7582   22.1497 H       1  UNL1        0.0000
   1969 H           5.6775   12.3312   19.7458 H       1  UNL1        0.0000
   1970 H          10.5647   15.7879   17.2691 H       1  UNL1        0.0000
   1971 H          -3.0532   16.0383   17.7800 H       1  UNL1        0.0000
   1972 C           7.5792   11.3158   19.7184 C.ar    1  UNL1        0.0000
   1973 C           6.4166    9.4800   21.4741 C.ar    1  UNL1        0.0000
   1974 C          11.0409   16.4860   17.9569 C.ar    1  UNL1        0.0000
   1975 C           2.7848    4.2281   19.6754 C.ar    1  UNL1        0.0000
   1976 C           6.2450   11.4867   20.1319 C.ar    1  UNL1        0.0000
   1977 C           7.7482    9.3100   21.0735 C.ar    1  UNL1        0.0000
   1978 C          10.3020   17.5495   18.4922 C.ar    1  UNL1        0.0000
   1979 C           3.5198    3.1524   19.1438 C.ar    1  UNL1        0.0000
   1980 C          12.3895   16.3155   18.2937 C.ar    1  UNL1        0.0000
   1981 C           1.4326    4.4008   19.3247 C.ar    1  UNL1        0.0000
   1982 C           8.3321   10.2278   20.1986 C.ar    1  UNL1        0.0000
   1983 C           5.6664   10.5696   21.0117 C.ar    1  UNL1        0.0000
   1984 H           4.7550   12.2896   25.6273 H      37  UNL37       0.0000
   1985 H           6.3063   10.8946   23.7724 H      37  UNL37       0.0000
   1986 C           5.5496   11.5672   25.7642 C.2    37  UNL37       0.0000
   1987 H           8.9313   10.6532   23.4967 H      37  UNL37       0.0000
   1988 C           6.3120   10.8838   24.8552 C.2    37  UNL37       0.0000
   1989 H           4.8984   12.5816   28.1536 H      37  UNL37       0.0000
   1990 N           5.9649   11.1742   27.0245 N.pl3  37  UNL37       0.0000
   1991 C           9.3375   10.0737   24.3354 C.3    37  UNL37       0.0000
   1992 H           9.8104   10.7616   25.0474 H      37  UNL37       0.0000
   1993 C           5.3857   11.6136   28.3013 C.3    37  UNL37       0.0000
   1994 N           7.1813   10.0831   25.5759 N.pl3  37  UNL37       0.0000
   1995 H           4.6446   10.8767   28.6371 H      37  UNL37       0.0000
   1996 H          10.1067    9.3949   23.9394 H      37  UNL37       0.0000
   1997 C           6.9537   10.2700   26.8896 C.3    37  UNL37       0.0000
   1998 C           8.2528    9.2383   25.0084 C.3    37  UNL37       0.0000
   1999 H           7.7881    8.5294   24.3101 H      37  UNL37       0.0000
   2000 H           6.1823   11.7090   29.0453 H      37  UNL37       0.0000
   2001 H           7.4742    9.7735   27.6998 H      37  UNL37       0.0000
   2002 H           8.6569    8.6561   25.8431 H      37  UNL37       0.0000
   2003 TI         -2.4930    2.1282   37.4669 Ti      1  UNL1        0.0000
   2004 TI          8.3374    5.0094   28.1021 Ti      1  UNL1        0.0000
   2005 TI          1.6036   -1.8080   35.6470 Ti      1  UNL1        0.0000
   2006 TI          3.1148    7.3541   29.8739 Ti      1  UNL1        0.0000
   2007 TI          2.1163    9.0324   27.9695 Ti      1  UNL1        0.0000
   2008 TI          3.4918   -2.0624   37.6003 Ti      1  UNL1        0.0000
   2009 TI         -1.5438    0.3923   35.5755 Ti      1  UNL1        0.0000
   2010 TI          6.3496    5.3119   29.9496 Ti      1  UNL1        0.0000
   2011 H          -1.9912    6.0253   37.2475 H      17  UNL17       0.0000
   2012 H           9.1462    1.1033   28.4228 H       1  UNL1        0.0000
   2013 H          -6.4529    1.3715   37.0845 H       7  UNL7        0.0000
   2014 H          11.7196    7.0137   28.3028 H       1  UNL1        0.0000
   2015 H           4.4674   -6.0969   37.2144 H      14  UNL14       0.0000
   2016 H          -1.9423    8.4425   28.2916 H       1  UNL1        0.0000
   2017 H           2.6107    7.3956   26.0965 H       1  UNL1        0.0000
   2018 H           6.4619    4.7667   26.4022 H       1  UNL1        0.0000
   2019 H           4.0018   -2.7295   32.0892 H       1  UNL1        0.0000
   2020 H           1.3914    9.1911   33.4929 H       1  UNL1        0.0000
   2021 H          -5.6165    3.7809   35.2196 H       1  UNL1        0.0000
   2022 H          11.0922    2.9251   30.4081 H       1  UNL1        0.0000
   2023 H          -3.3154    2.3335   31.8857 H       1  UNL1        0.0000
   2024 H          -0.9838   10.8603   30.3228 H       1  UNL1        0.0000
   2025 H           2.5085   12.1352   28.8250 H       1  UNL1        0.0000
   2026 H           8.9884   -0.9155   29.6253 H       1  UNL1        0.0000
   2027 H           5.2075    7.0342   28.5353 H       1  UNL1        0.0000
   2028 H           0.5229    0.0404   36.9406 H       1  UNL1        0.0000
   2029 H           7.7266   -0.1275   35.9900 H      18  UNL18       0.0000
   2030 H           6.2455   -0.5966   36.7373 H      18  UNL18       0.0000
   2031 H           8.3007    4.3061   34.8911 H       1  UNL1        0.0000
   2032 H           7.7310    4.6647   33.2726 H       1  UNL1        0.0000
   2033 H           7.2378   -5.0823   35.8000 H       1  UNL1        0.0000
   2034 H           5.9586   -3.9818   36.2574 H       1  UNL1        0.0000
   2035 C           8.9155    4.2681   30.9657 C.3     1  UNL1        0.0000
   2036 C          -3.4536    2.3896   34.6199 C.3     1  UNL1        0.0000
   2037 C           4.1841   -2.8187   34.7222 C.3     1  UNL1        0.0000
   2038 C           1.1787    9.3246   30.8333 C.3     1  UNL1        0.0000
   2039 C           9.8115    3.6638   31.9609 C.ar    1  UNL1        0.0000
   2040 C          -4.3855    3.0146   33.6429 C.ar    1  UNL1        0.0000
   2041 C           5.1243   -3.4331   33.7751 C.ar    1  UNL1        0.0000
   2042 C           0.2889    9.9714   31.8331 C.ar    1  UNL1        0.0000
   2043 C           9.5627    3.7387   33.3673 C.ar    1  UNL1        0.0000
   2044 C          -4.1691    2.8946   32.2548 C.ar    1  UNL1        0.0000
   2045 C           6.2538   -4.1934   34.2281 C.ar    1  UNL1        0.0000
   2046 C          -0.8058   10.7444   31.3882 C.ar    1  UNL1        0.0000
   2047 C           0.5434    9.8007   33.1880 C.ar    1  UNL1        0.0000
   2048 C           4.8766   -3.3009   32.3911 C.ar    1  UNL1        0.0000
   2049 C          10.9452    2.9648   31.4851 C.ar    1  UNL1        0.0000
   2050 C          -5.4857    3.7070   34.1415 C.ar    1  UNL1        0.0000
   2051 C           9.1272    1.1824   26.2787 C.ar    1  UNL1        0.0000
   2052 C           2.6575   12.9740   26.3037 C.ar    1  UNL1        0.0000
   2053 C          11.6117    6.9455   26.1527 C.ar    1  UNL1        0.0000
   2054 C          -1.7467    8.4880   26.1333 C.ar    1  UNL1        0.0000
   2055 C           3.8615    5.0109   31.8385 C.3     1  UNL1        0.0000
   2056 C          -0.8945   -2.0834   33.7567 C.3     1  UNL1        0.0000
   2057 C           8.9914    2.6373   26.2555 C.3     1  UNL1        0.0000
   2058 C           2.5648   11.5405   26.2662 C.3     1  UNL1        0.0000
   2059 C          10.3138    6.3287   26.1996 C.3     1  UNL1        0.0000
   2060 C          -0.3443    8.9023   26.1578 C.3     1  UNL1        0.0000
   2061 C           9.1666    0.5133   27.5084 C.ar    1  UNL1        0.0000
   2062 C          -1.9802    6.6137   38.1614 C.3    17  UNL17       0.0000
   2063 C          12.2670    7.2203   27.3867 C.ar    1  UNL1        0.0000
   2064 C          -7.0144    1.1922   37.9999 C.3     7  UNL7        0.0000
   2065 C           7.6713    0.1478   38.0143 C.3    18  UNL18       0.0000
   2066 C          -2.4438    8.2575   27.3458 C.ar    1  UNL1        0.0000
   2067 C           4.5091   -6.6241   38.1635 C.3    14  UNL14       0.0000
   2068 C           2.6713   13.7252   27.5330 C.ar    1  UNL1        0.0000
   2069 N           2.7263   13.1263   28.7712 N.pl3   1  UNL1        0.0000
   2070 N           7.0923   -0.0350   36.7754 N.3    18  UNL18       0.0000
   2071 N           8.4818    4.3850   33.8986 N.pl3   1  UNL1        0.0000
   2072 N           6.5848   -4.3516   35.5455 N.pl3   1  UNL1        0.0000
   2073 O           7.7391    4.6732   31.3315 O.3     1  UNL1        0.0000
   2074 O          -2.6846    1.4387   34.2216 O.3     1  UNL1        0.0000
   2075 O           4.5656   -2.6943   35.9434 O.3     1  UNL1        0.0000
   2076 O           1.1128    9.7543   29.6337 O.3     1  UNL1        0.0000
   2077 O           1.9492    8.3674   31.2197 O.3     1  UNL1        0.0000
   2078 O           3.0137   -2.4503   34.3167 O.3     1  UNL1        0.0000
   2079 O           9.3273    4.3489   29.7539 O.3     1  UNL1        0.0000
   2080 O          -3.4956    2.8258   35.8196 O.3     1  UNL1        0.0000
   2081 O           6.6548    4.0940   28.7549 O.3     1  UNL1        0.0000
   2082 O          -0.9914    1.9526   36.3200 O.3     1  UNL1        0.0000
   2083 O           7.5936    6.3813   29.2049 O.3     1  UNL1        0.0000
   2084 O          -2.7436    0.2280   36.8127 O.3     1  UNL1        0.0000
   2085 O           1.8629   -2.9800   36.9074 O.3     1  UNL1        0.0000
   2086 O           3.6314    8.9154   29.1355 O.3     1  UNL1        0.0000
   2087 O           2.8169   -0.7185   36.4432 O.3     1  UNL1        0.0000
   2088 O           1.9251    7.1583   28.6180 O.3     1  UNL1        0.0000
   2089 O           5.0827    4.8311   31.4843 O.3     1  UNL1        0.0000
   2090 O          -1.5522   -1.0485   34.1349 O.3     1  UNL1        0.0000
   2091 O           4.2342   -3.8342   38.2094 O.3     1  UNL1        0.0000
   2092 O           2.4816   10.8390   27.3614 O.3     1  UNL1        0.0000
   2093 O           5.0363   -1.0460   38.2043 O.3     1  UNL1        0.0000
   2094 O           0.2457    9.0033   27.3014 O.3     1  UNL1        0.0000
   2095 O           0.2673   -2.3780   34.2145 O.3     1  UNL1        0.0000
   2096 O           3.1197    5.9318   31.3452 O.3     1  UNL1        0.0000
   2097 O           9.7745    6.0285   27.3476 O.3     1  UNL1        0.0000
   2098 O          -4.3798    2.0681   38.1354 O.3     1  UNL1        0.0000
   2099 O           8.9789    3.2742   27.3770 O.3     1  UNL1        0.0000
   2100 O          -2.1116    3.8505   38.2167 O.3     1  UNL1        0.0000
   2101 O           4.8466    6.4855   29.2560 O.3     1  UNL1        0.0000
   2102 O           0.1447   -0.5183   36.2370 O.3     1  UNL1        0.0000
   2103 O           7.3007    5.2604   26.3232 O.3     1  UNL1        0.0000
   2104 O           2.7331    8.3624   26.1564 O.3     1  UNL1        0.0000
   2105 H           4.0028    1.2169   34.5516 H       1  UNL1        0.0000
   2106 H           0.2493   -4.2082   32.5434 H       1  UNL1        0.0000
   2107 H           4.9394   10.4242   31.3372 H       1  UNL1        0.0000
   2108 H           5.0481    2.8702   32.9740 H       1  UNL1        0.0000
   2109 H           0.3206    3.4457   34.4472 H       1  UNL1        0.0000
   2110 H          -3.4313   -2.0017   32.8586 H       1  UNL1        0.0000
   2111 H           1.6471    1.5190   35.2600 H       1  UNL1        0.0000
   2112 H           1.3650    5.0920   32.8560 H       1  UNL1        0.0000
   2113 H           6.2521    8.5487   30.3794 H       1  UNL1        0.0000
   2114 H          -7.3658    8.7991   30.8903 H       1  UNL1        0.0000
   2115 C           3.2666    4.0766   32.8287 C.ar    1  UNL1        0.0000
   2116 C           2.1040    2.2408   34.5844 C.ar    1  UNL1        0.0000
   2117 C           6.7283    9.2468   31.0672 C.ar    1  UNL1        0.0000
   2118 C          -1.5277   -3.0111   32.7857 C.ar    1  UNL1        0.0000
   2119 C           1.9324    4.2475   33.2422 C.ar    1  UNL1        0.0000
   2120 C           3.4357    2.0708   34.1838 C.ar    1  UNL1        0.0000
   2121 C           5.9895   10.3103   31.6025 C.ar    1  UNL1        0.0000
   2122 C          -0.7928   -4.0868   32.2540 C.ar    1  UNL1        0.0000
   2123 C           8.0770    9.0763   31.4039 C.ar    1  UNL1        0.0000
   2124 C          -2.8800   -2.8384   32.4349 C.ar    1  UNL1        0.0000
   2125 C           4.0196    2.9886   33.3089 C.ar    1  UNL1        0.0000
   2126 C           1.3539    3.3304   34.1220 C.ar    1  UNL1        0.0000
   2127 H           0.4425    5.0504   38.7376 H      38  UNL38       0.0000
   2128 H           1.9938    3.6554   36.8827 H      38  UNL38       0.0000
   2129 C           1.2371    4.3280   38.8745 C.2    38  UNL38       0.0000
   2130 H           4.6188    3.4140   36.6070 H      38  UNL38       0.0000
   2131 C           1.9995    3.6446   37.9655 C.2    38  UNL38       0.0000
   2132 H           0.5859    5.3424   41.2639 H      38  UNL38       0.0000
   2133 N           1.6524    3.9350   40.1347 N.pl3  38  UNL38       0.0000
   2134 C           5.0250    2.8345   37.4457 C.3    38  UNL38       0.0000
   2135 H           5.4979    3.5224   38.1577 H      38  UNL38       0.0000
   2136 C           1.0731    4.3744   41.4116 C.3    38  UNL38       0.0000
   2137 N           2.8687    2.8439   38.6862 N.pl3  38  UNL38       0.0000
   2138 H           0.3321    3.6375   41.7474 H      38  UNL38       0.0000
   2139 H           5.7942    2.1557   37.0497 H      38  UNL38       0.0000
   2140 C           2.6412    3.0308   39.9998 C.3    38  UNL38       0.0000
   2141 C           3.9403    1.9991   38.1186 C.3    38  UNL38       0.0000
   2142 H           3.4756    1.2902   37.4204 H      38  UNL38       0.0000
   2143 H           1.8698    4.4698   42.1555 H      38  UNL38       0.0000
   2144 H           3.1616    2.5343   40.8101 H      38  UNL38       0.0000
   2145 H           4.3443    1.4169   38.9534 H      38  UNL38       0.0000
   2146 TI         -0.8899   30.9834   11.2464 Ti      1  UNL1        0.0000
   2147 TI          9.9406   33.8646    1.8816 Ti      1  UNL1        0.0000
   2148 TI          3.2068   27.0472    9.4264 Ti      1  UNL1        0.0000
   2149 TI          4.7180   36.2093    3.6534 Ti      1  UNL1        0.0000
   2150 TI          3.7194   37.8876    1.7490 Ti      1  UNL1        0.0000
   2151 TI          5.0950   26.7928   11.3798 Ti      1  UNL1        0.0000
   2152 TI          0.0593   29.2475    9.3549 Ti      1  UNL1        0.0000
   2153 TI          7.9527   34.1672    3.7291 Ti      1  UNL1        0.0000
   2154 H          -0.3880   34.8805   11.0269 H       1  UNL1        0.0000
   2155 H          10.7493   29.9585    2.2023 H       1  UNL1        0.0000
   2156 H          -4.8498   30.2268   10.8639 H       1  UNL1        0.0000
   2157 H          13.3227   35.8689    2.0822 H       1  UNL1        0.0000
   2158 H           6.0706   22.7583   10.9939 H       1  UNL1        0.0000
   2159 H          -0.3391   37.2977    2.0711 H       1  UNL1        0.0000
   2160 H           4.2138   36.2508   -0.1241 H       1  UNL1        0.0000
   2161 H           8.0650   33.6219    0.1817 H       1  UNL1        0.0000
   2162 H           5.6049   26.1257    5.8687 H       1  UNL1        0.0000
   2163 H           2.9945   38.0463    7.2723 H       1  UNL1        0.0000
   2164 H          -4.0133   32.6361    8.9990 H       1  UNL1        0.0000
   2165 H          12.6953   31.7803    4.1876 H       1  UNL1        0.0000
   2166 H          -1.7122   31.1887    5.6652 H       1  UNL1        0.0000
   2167 H           0.6193   39.7155    4.1022 H       1  UNL1        0.0000
   2168 H           4.1116   40.9905    2.6045 H       1  UNL1        0.0000
   2169 H          10.5915   27.9397    3.4048 H       1  UNL1        0.0000
   2170 H           6.8106   35.8895    2.3148 H       1  UNL1        0.0000
   2171 H           2.1261   28.8956   10.7200 H       1  UNL1        0.0000
   2172 H           9.3297   28.7277    9.7694 H       1  UNL1        0.0000
   2173 H           7.8486   28.2586   10.5168 H       1  UNL1        0.0000
   2174 H           9.9038   33.1613    8.6705 H       1  UNL1        0.0000
   2175 H           9.3341   33.5199    7.0520 H       1  UNL1        0.0000
   2176 H           8.8409   23.7729    9.5794 H       1  UNL1        0.0000
   2177 H           7.5618   24.8734   10.0368 H       1  UNL1        0.0000
   2178 C          10.5186   33.1234    4.7451 C.3     1  UNL1        0.0000
   2179 C          -1.8505   31.2448    8.3994 C.3     1  UNL1        0.0000
   2180 C           5.7873   26.0365    8.5017 C.3     1  UNL1        0.0000
   2181 C           2.7818   38.1798    4.6127 C.3     1  UNL1        0.0000
   2182 C          11.4146   32.5190    5.7403 C.ar    1  UNL1        0.0000
   2183 C          -2.7824   31.8698    7.4223 C.ar    1  UNL1        0.0000
   2184 C           6.7275   25.4221    7.5545 C.ar    1  UNL1        0.0000
   2185 C           1.8920   38.8266    5.6125 C.2     1  UNL1        0.0000
   2186 C          11.1659   32.5940    7.1467 C.ar    1  UNL1        0.0000
   2187 C          -2.5660   31.7498    6.0343 C.ar    1  UNL1        0.0000
   2188 C           7.8569   24.6618    8.0076 C.ar    1  UNL1        0.0000
   2189 C           0.7973   39.5996    5.1676 C.3     1  UNL1        0.0000
   2190 C           2.1465   38.6559    6.9674 C.2     1  UNL1        0.0000
   2191 C           6.4798   25.5543    6.1706 C.ar    1  UNL1        0.0000
   2192 C          12.5483   31.8201    5.2646 C.ar    1  UNL1        0.0000
   2193 C          -3.8825   32.5622    7.9210 C.ar    1  UNL1        0.0000
   2194 C          10.7304   30.0376    0.0582 C.2     1  UNL1        0.0000
   2195 C           4.2606   41.8292    0.0832 C.2     1  UNL1        0.0000
   2196 C          13.2148   35.8007   -0.0678 C.2     1  UNL1        0.0000
   2197 C          -0.1435   37.3432   -0.0872 C.2     1  UNL1        0.0000
   2198 C           5.4647   33.8661    5.6180 C.3     1  UNL1        0.0000
   2199 C           0.7086   26.7718    7.5361 C.3     1  UNL1        0.0000
   2200 C          10.5945   31.4925    0.0350 C.2     1  UNL1        0.0000
   2201 C           4.1679   40.3957    0.0457 C.2     1  UNL1        0.0000
   2202 C          11.9170   35.1839   -0.0210 C.2     1  UNL1        0.0000
   2203 C           1.2588   37.7575   -0.0628 C.2     1  UNL1        0.0000
   2204 C          10.7697   29.3685    1.2879 C.3     1  UNL1        0.0000
   2205 C          -0.3771   35.4689   11.9408 C.3     1  UNL1        0.0000
   2206 C          13.8701   36.0755    1.1661 C.3     1  UNL1        0.0000
   2207 C          -5.4113   30.0474   11.7793 C.ar    1  UNL1        0.0000
   2208 C           9.2745   29.0030   11.7938 C.ar    1  UNL1        0.0000
   2209 C          -0.8407   37.1127    1.1253 C.3     1  UNL1        0.0000
   2210 C           6.1122   22.2311   11.9429 C.ar    1  UNL1        0.0000
   2211 C           4.2744   42.5804    1.3125 C.3     1  UNL1        0.0000
   2212 N           4.3295   41.9816    2.5506 N.3     1  UNL1        0.0000
   2213 N           8.6954   28.8202   10.5548 N.pl3   1  UNL1        0.0000
   2214 N          10.0850   33.2402    7.6780 N.pl3   1  UNL1        0.0000
   2215 N           8.1879   24.5036    9.3250 N.pl3   1  UNL1        0.0000
   2216 O           9.3423   33.5285    5.1109 O.3     1  UNL1        0.0000
   2217 O          -1.0815   30.2939    8.0011 O.3     1  UNL1        0.0000
   2218 O           6.1687   26.1610    9.7228 O.3     1  UNL1        0.0000
   2219 O           2.7160   38.6095    3.4131 O.3     1  UNL1        0.0000
   2220 O           3.5523   37.2226    4.9992 O.3     1  UNL1        0.0000
   2221 O           4.6168   26.4049    8.0962 O.3     1  UNL1        0.0000
   2222 O          10.9305   33.2041    3.5334 O.3     1  UNL1        0.0000
   2223 O          -1.8925   31.6810    9.5991 O.3     1  UNL1        0.0000
   2224 O           8.2580   32.9492    2.5344 O.3     1  UNL1        0.0000
   2225 O           0.6117   30.8079   10.0994 O.3     1  UNL1        0.0000
   2226 O           9.1967   35.2365    2.9843 O.3     1  UNL1        0.0000
   2227 O          -1.1404   29.0832   10.5921 O.3     1  UNL1        0.0000
   2228 O           3.4661   25.8752   10.6868 O.3     1  UNL1        0.0000
   2229 O           5.2345   37.7706    2.9149 O.3     1  UNL1        0.0000
   2230 O           4.4200   28.1367   10.2227 O.3     1  UNL1        0.0000
   2231 O           3.5283   36.0135    2.3975 O.3     1  UNL1        0.0000
   2232 O           6.6858   33.6863    5.2637 O.3     1  UNL1        0.0000
   2233 O           0.0509   27.8067    7.9143 O.3     1  UNL1        0.0000
   2234 O           5.8373   25.0210   11.9889 O.3     1  UNL1        0.0000
   2235 O           4.0848   39.6942    1.1409 O.2     1  UNL1        0.0000
   2236 O           6.6394   27.8092   11.9838 O.3     1  UNL1        0.0000
   2237 O           1.8488   37.8585    1.0808 O.2     1  UNL1        0.0000
   2238 O           1.8704   26.4772    7.9939 O.3     1  UNL1        0.0000
   2239 O           4.7228   34.7870    5.1246 O.3     1  UNL1        0.0000
   2240 O          11.3776   34.8837    1.1270 O.2     1  UNL1        0.0000
   2241 O          -2.7767   30.9233   11.9148 O.3     1  UNL1        0.0000
   2242 O          10.5821   32.1294    1.1564 O.2     1  UNL1        0.0000
   2243 O          -0.5085   32.7057   11.9961 O.2     1  UNL1        0.0000
   2244 O           6.4498   35.3407    3.0354 O.3     1  UNL1        0.0000
   2245 O           1.7478   28.3369   10.0165 O.3     1  UNL1        0.0000
   2246 O           8.9039   34.1156    0.1026 O.3     1  UNL1        0.0000
   2247 O           4.3362   37.2176   -0.0641 O.3     1  UNL1        0.0000
   2248 H           5.6059   30.0721    8.3310 H       1  UNL1        0.0000
   2249 H           1.8524   24.6470    6.3229 H       1  UNL1        0.0000
   2250 H           6.5425   39.2794    5.1167 H      19  UNL19       0.0000
   2251 H           6.6512   31.7255    6.7535 H       1  UNL1        0.0000
   2252 H           1.9237   32.3009    8.2267 H       1  UNL1        0.0000
   2253 H          -1.8282   26.8535    6.6381 H       1  UNL1        0.0000
   2254 H           3.2503   30.3742    9.0395 H       1  UNL1        0.0000
   2255 H           2.9681   33.9472    6.6355 H       1  UNL1        0.0000
   2256 H           7.8552   37.4039    4.1589 H      19  UNL19       0.0000
   2257 H          -5.7626   37.6543    4.6697 H       8  UNL8        0.0000
   2258 C           4.8698   32.9318    6.6081 C.ar    1  UNL1        0.0000
   2259 C           3.7071   31.0961    8.3638 C.ar    1  UNL1        0.0000
   2260 C           8.3315   38.1020    4.8466 C.2    19  UNL19       0.0000
   2261 C           0.0754   25.8441    6.5651 C.ar    1  UNL1        0.0000
   2262 C           3.5355   33.1028    7.0216 C.ar    1  UNL1        0.0000
   2263 C           5.0388   30.9260    7.9632 C.ar    1  UNL1        0.0000
   2264 C           7.5926   39.1655    5.3820 C.2    19  UNL19       0.0000
   2265 C           0.8104   24.7684    6.0335 C.ar    1  UNL1        0.0000
   2266 C           9.6801   37.9315    5.1834 C.3    19  UNL19       0.0000
   2267 C          -1.2768   26.0168    6.2144 C.ar    1  UNL1        0.0000
   2268 C           5.6227   31.8438    7.0884 C.ar    1  UNL1        0.0000
   2269 C           2.9570   32.1856    7.9015 C.ar    1  UNL1        0.0000
   2270 H           2.0456   33.9056   12.5170 H      39  UNL39       0.0000
   2271 H           3.5969   32.5106   10.6621 H      39  UNL39       0.0000
   2272 C           2.8402   33.1832   12.6539 C.2    39  UNL39       0.0000
   2273 H           6.2219   32.2693   10.3864 H      39  UNL39       0.0000
   2274 C           3.6026   32.4998   11.7449 C.2    39  UNL39       0.0000
   2275 H           2.1890   34.1976   15.0434 H      39  UNL39       0.0000
   2276 N           3.2555   32.7902   13.9142 N.pl3  39  UNL39       0.0000
   2277 C           6.6281   31.6897   11.2252 C.3    39  UNL39       0.0000
   2278 H           7.1010   32.3776   11.9372 H      39  UNL39       0.0000
   2279 C           2.6763   33.2296   15.1910 C.3    39  UNL39       0.0000
   2280 N           4.4719   31.6991   12.4656 N.pl3  39  UNL39       0.0000
   2281 H           1.9352   32.4927   15.5268 H      39  UNL39       0.0000
   2282 H           7.3973   31.0109   10.8291 H      39  UNL39       0.0000
   2283 C           4.2443   31.8860   13.7793 C.3    39  UNL39       0.0000
   2284 C           5.5434   30.8543   11.8981 C.3    39  UNL39       0.0000
   2285 H           5.0787   30.1455   11.1998 H      39  UNL39       0.0000
   2286 H           3.4729   33.3251   15.9350 H      39  UNL39       0.0000
   2287 H           4.7648   31.3895   14.5895 H      39  UNL39       0.0000
   2288 H           5.9475   30.2721   12.7328 H      39  UNL39       0.0000
   2289 TI         -5.2025   23.7442   24.3567 Ti      1  UNL1        0.0000
   2290 TI          5.6280   26.6254   14.9919 Ti      1  UNL1        0.0000
   2291 TI         -1.1058   19.8080   22.5367 Ti      1  UNL1        0.0000
   2292 TI          0.4054   28.9701   16.7637 Ti      1  UNL1        0.0000
   2293 TI         -0.5931   30.6484   14.8593 Ti      1  UNL1        0.0000
   2294 TI          0.7824   19.5536   24.4901 Ti      1  UNL1        0.0000
   2295 TI         -4.2533   22.0083   22.4652 Ti      1  UNL1        0.0000
   2296 TI          3.6402   26.9280   16.8393 Ti      1  UNL1        0.0000
   2297 H          -4.7006   27.6413   24.1372 H       1  UNL1        0.0000
   2298 H           6.4368   22.7193   15.3125 H       1  UNL1        0.0000
   2299 H          -9.1624   22.9876   23.9742 H       1  UNL1        0.0000
   2300 H           9.0102   28.6297   15.1925 H       1  UNL1        0.0000
   2301 H           1.7580   15.5191   24.1041 H       1  UNL1        0.0000
   2302 H          -4.6517   30.0585   15.1813 H       1  UNL1        0.0000
   2303 H          -0.0987   29.0116   12.9862 H       1  UNL1        0.0000
   2304 H           3.7525   26.3827   13.2919 H       1  UNL1        0.0000
   2305 H           1.2923   18.8865   18.9790 H       1  UNL1        0.0000
   2306 H          -1.3180   30.8071   20.3826 H       1  UNL1        0.0000
   2307 H          -8.3259   25.3969   22.1093 H       1  UNL1        0.0000
   2308 H           8.3828   24.5411   17.2979 H       1  UNL1        0.0000
   2309 H          -6.0248   23.9495   18.7754 H       1  UNL1        0.0000
   2310 H          -3.6932   32.4763   17.2125 H       1  UNL1        0.0000
   2311 H          -0.2009   33.7513   15.7147 H       1  UNL1        0.0000
   2312 H           6.2790   20.7005   16.5150 H       1  UNL1        0.0000
   2313 H           2.4981   28.6502   15.4250 H       1  UNL1        0.0000
   2314 H          -2.1865   21.6564   23.8303 H       1  UNL1        0.0000
   2315 H           5.0172   21.4885   22.8797 H       1  UNL1        0.0000
   2316 H           3.5361   21.0194   23.6271 H       1  UNL1        0.0000
   2317 H           5.5913   25.9221   21.7808 H       1  UNL1        0.0000
   2318 H           5.0216   26.2807   20.1623 H       1  UNL1        0.0000
   2319 H           4.5284   16.5337   22.6897 H       1  UNL1        0.0000
   2320 H           3.2492   17.6342   23.1471 H       1  UNL1        0.0000
   2321 C           6.2061   25.8842   17.8554 C.3     1  UNL1        0.0000
   2322 C          -6.1630   24.0056   21.5096 C.3     1  UNL1        0.0000
   2323 C           1.4747   18.7973   21.6120 C.3     1  UNL1        0.0000
   2324 C          -1.5307   30.9406   17.7230 C.3     1  UNL1        0.0000
   2325 C           7.1021   25.2798   18.8506 C.ar    1  UNL1        0.0000
   2326 C          -7.0949   24.6306   20.5326 C.ar    1  UNL1        0.0000
   2327 C           2.4149   18.1829   20.6648 C.ar    1  UNL1        0.0000
   2328 C          -2.4205   31.5874   18.7228 C.2     1  UNL1        0.0000
   2329 C           6.8533   25.3548   20.2570 C.ar    1  UNL1        0.0000
   2330 C          -6.8785   24.5106   19.1446 C.ar    1  UNL1        0.0000
   2331 C           3.5444   17.4226   21.1178 C.ar    1  UNL1        0.0000
   2332 C          -3.5152   32.3604   18.2779 C.3     1  UNL1        0.0000
   2333 C          -2.1660   31.4167   20.0777 C.2     1  UNL1        0.0000
   2334 C           2.1672   18.3151   19.2809 C.ar    1  UNL1        0.0000
   2335 C           8.2358   24.5809   18.3749 C.ar    1  UNL1        0.0000
   2336 C          -8.1951   25.3230   21.0313 C.ar    1  UNL1        0.0000
   2337 C           6.4178   22.7984   13.1685 C.ar    1  UNL1        0.0000
   2338 C          -0.0519   34.5900   13.1935 C.2     1  UNL1        0.0000
   2339 C           8.9023   28.5615   13.0424 C.ar    1  UNL1        0.0000
   2340 C          -4.4561   30.1040   13.0231 C.ar    1  UNL1        0.0000
   2341 C           1.1521   26.6269   18.7283 C.3     1  UNL1        0.0000
   2342 C          -3.6039   19.5326   20.6464 C.3     1  UNL1        0.0000
   2343 C           6.2820   24.2533   13.1453 C.3     1  UNL1        0.0000
   2344 C          -0.1446   33.1565   13.1560 C.2     1  UNL1        0.0000
   2345 C           7.6044   27.9447   13.0893 C.3     1  UNL1        0.0000
   2346 C          -3.0538   30.5183   13.0475 C.3     1  UNL1        0.0000
   2347 C           6.4572   22.1293   14.3981 C.ar    1  UNL1        0.0000
   2348 C          -4.6896   28.2297   25.0511 C.3     1  UNL1        0.0000
   2349 C           9.5576   28.8363   14.2764 C.ar    1  UNL1        0.0000
   2350 C          -9.7238   22.8082   24.8896 C.ar    1  UNL1        0.0000
   2351 C           4.9619   21.7638   24.9041 C.ar    1  UNL1        0.0000
   2352 C          -5.1533   29.8735   14.2355 C.ar    1  UNL1        0.0000
   2353 C           1.7997   14.9919   25.0532 C.ar    1  UNL1        0.0000
   2354 C          -0.0381   35.3412   14.4227 C.3     1  UNL1        0.0000
   2355 N           0.0169   34.7424   15.6609 N.3     1  UNL1        0.0000
   2356 N           4.3829   21.5810   23.6651 N.pl3   1  UNL1        0.0000
   2357 N           5.7724   26.0010   20.7883 N.pl3   1  UNL1        0.0000
   2358 N           3.8754   17.2644   22.4352 N.pl3   1  UNL1        0.0000
   2359 O           5.0297   26.2893   18.2212 O.3     1  UNL1        0.0000
   2360 O          -5.3940   23.0547   21.1114 O.3     1  UNL1        0.0000
   2361 O           1.8562   18.9218   22.8331 O.3     1  UNL1        0.0000
   2362 O          -1.5966   31.3703   16.5234 O.3     1  UNL1        0.0000
   2363 O          -0.7602   29.9834   18.1095 O.3     1  UNL1        0.0000
   2364 O           0.3043   19.1657   21.2065 O.3     1  UNL1        0.0000
   2365 O           6.6179   25.9649   16.6436 O.3     1  UNL1        0.0000
   2366 O          -6.2050   24.4418   22.7094 O.3     1  UNL1        0.0000
   2367 O           3.9454   25.7100   15.6446 O.3     1  UNL1        0.0000
   2368 O          -3.7008   23.5687   23.2097 O.3     1  UNL1        0.0000
   2369 O           4.8842   27.9973   16.0946 O.3     1  UNL1        0.0000
   2370 O          -5.4530   21.8440   23.7024 O.3     1  UNL1        0.0000
   2371 O          -0.8465   18.6360   23.7971 O.3     1  UNL1        0.0000
   2372 O           0.9220   30.5314   16.0252 O.3     1  UNL1        0.0000
   2373 O           0.1075   20.8975   23.3329 O.3     1  UNL1        0.0000
   2374 O          -0.7843   28.7743   15.5078 O.3     1  UNL1        0.0000
   2375 O           2.3733   26.4471   18.3740 O.3     1  UNL1        0.0000
   2376 O          -4.2616   20.5675   21.0246 O.3     1  UNL1        0.0000
   2377 O           1.5248   17.7818   25.0992 O.3     1  UNL1        0.0000
   2378 O          -0.2278   32.4550   14.2512 O.2     1  UNL1        0.0000
   2379 O           2.3269   20.5700   25.0940 O.3     1  UNL1        0.0000
   2380 O          -2.4637   30.6193   14.1911 O.3     1  UNL1        0.0000
   2381 O          -2.4421   19.2380   21.1042 O.3     1  UNL1        0.0000
   2382 O           0.4103   27.5478   18.2349 O.3     1  UNL1        0.0000
   2383 O           7.0651   27.6445   14.2373 O.3     1  UNL1        0.0000
   2384 O          -7.0892   23.6841   25.0251 O.3     1  UNL1        0.0000
   2385 O           6.2695   24.8902   14.2667 O.3     1  UNL1        0.0000
   2386 O          -4.8210   25.4665   25.1064 O.2     1  UNL1        0.0000
   2387 O           2.1372   28.1015   16.1457 O.3     1  UNL1        0.0000
   2388 O          -2.5647   21.0977   23.1267 O.3     1  UNL1        0.0000
   2389 O           4.5913   26.8764   13.2129 O.3     1  UNL1        0.0000
   2390 O           0.0237   29.9784   13.0462 O.3     1  UNL1        0.0000
   2391 H           1.2934   22.8329   21.4413 H       1  UNL1        0.0000
   2392 H          -2.4601   17.4078   19.4331 H       1  UNL1        0.0000
   2393 H           2.2299   32.0402   18.2269 H      20  UNL20       0.0000
   2394 H           2.3387   24.4863   19.8637 H       1  UNL1        0.0000
   2395 H          -2.3889   25.0617   21.3370 H       1  UNL1        0.0000
   2396 H          -6.1407   19.6143   19.7483 H       1  UNL1        0.0000
   2397 H          -1.0623   23.1350   22.1497 H       1  UNL1        0.0000
   2398 H          -1.3444   26.7080   19.7458 H       1  UNL1        0.0000
   2399 H           3.5427   30.1647   17.2691 H      20  UNL20       0.0000
   2400 H         -10.0752   30.4151   17.7800 H       9  UNL9        0.0000
   2401 C           0.5572   25.6926   19.7184 C.ar    1  UNL1        0.0000
   2402 C          -0.6054   23.8569   21.4741 C.ar    1  UNL1        0.0000
   2403 C           4.0189   30.8628   17.9569 C.2    20  UNL20       0.0000
   2404 C          -4.2371   18.6049   19.6754 C.ar    1  UNL1        0.0000
   2405 C          -0.7770   25.8636   20.1319 C.ar    1  UNL1        0.0000
   2406 C           0.7263   23.6868   21.0735 C.ar    1  UNL1        0.0000
   2407 C           3.2801   31.9263   18.4922 C.2    20  UNL20       0.0000
   2408 C          -3.5022   17.5292   19.1438 C.ar    1  UNL1        0.0000
   2409 C           5.3676   30.6923   18.2937 C.3    20  UNL20       0.0000
   2410 C          -5.5894   18.7776   19.3247 C.ar    1  UNL1        0.0000
   2411 C           1.3102   24.6046   20.1986 C.ar    1  UNL1        0.0000
   2412 C          -1.3555   24.9464   21.0117 C.ar    1  UNL1        0.0000
   2413 H          -2.2669   26.6664   25.6273 H      40  UNL40       0.0000
   2414 H          -0.7156   25.2714   23.7724 H      40  UNL40       0.0000
   2415 C          -1.4723   25.9440   25.7642 C.2    40  UNL40       0.0000
   2416 H           1.9094   25.0301   23.4967 H      40  UNL40       0.0000
   2417 C          -0.7100   25.2606   24.8552 C.2    40  UNL40       0.0000
   2418 H          -2.1235   26.9584   28.1536 H      40  UNL40       0.0000
   2419 N          -1.0570   25.5510   27.0245 N.pl3  40  UNL40       0.0000
   2420 C           2.3156   24.4505   24.3354 C.3    40  UNL40       0.0000
   2421 H           2.7885   25.1384   25.0474 H      40  UNL40       0.0000
   2422 C          -1.6363   25.9904   28.3013 C.3    40  UNL40       0.0000
   2423 N           0.1593   24.4599   25.5759 N.pl3  40  UNL40       0.0000
   2424 H          -2.3773   25.2535   28.6371 H      40  UNL40       0.0000
   2425 H           3.0848   23.7717   23.9394 H      40  UNL40       0.0000
   2426 C          -0.0682   24.6468   26.8896 C.3    40  UNL40       0.0000
   2427 C           1.2309   23.6151   25.0084 C.3    40  UNL40       0.0000
   2428 H           0.7662   22.9063   24.3101 H      40  UNL40       0.0000
   2429 H          -0.8396   26.0859   29.0453 H      40  UNL40       0.0000
   2430 H           0.4522   24.1503   27.6998 H      40  UNL40       0.0000
   2431 H           1.6349   23.0329   25.8431 H      40  UNL40       0.0000
   2432 TI         -9.5150   16.5050   37.4669 Ti      1  UNL1        0.0000
   2433 TI          1.3155   19.3862   28.1021 Ti      1  UNL1        0.0000
   2434 TI         -5.4183   12.5688   35.6470 Ti      1  UNL1        0.0000
   2435 TI         -3.9071   21.7309   29.8739 Ti      1  UNL1        0.0000
   2436 TI         -4.9057   23.4092   27.9695 Ti      1  UNL1        0.0000
   2437 TI         -3.5301   12.3144   37.6003 Ti      1  UNL1        0.0000
   2438 TI         -8.5658   14.7691   35.5755 Ti      1  UNL1        0.0000
   2439 TI         -0.6723   19.6887   29.9496 Ti      1  UNL1        0.0000
   2440 H          -9.0131   20.4021   37.2475 H      21  UNL21       0.0000
   2441 H           2.1243   15.4801   28.4228 H       1  UNL1        0.0000
   2442 H         -13.4749   15.7484   37.0845 H      12  UNL12       0.0000
   2443 H           4.6976   21.3905   28.3028 H       1  UNL1        0.0000
   2444 H          -2.5545    8.2799   37.2144 H      17  UNL17       0.0000
   2445 H          -8.9642   22.8193   28.2916 H       1  UNL1        0.0000
   2446 H          -4.4112   21.7724   26.0965 H       1  UNL1        0.0000
   2447 H          -0.5600   19.1435   26.4022 H       1  UNL1        0.0000
   2448 H          -3.0202   11.6473   32.0892 H       1  UNL1        0.0000
   2449 H          -5.6305   23.5679   33.4929 H       1  UNL1        0.0000
   2450 H         -12.6384   18.1577   35.2196 H       1  UNL1        0.0000
   2451 H           4.0703   17.3019   30.4081 H       1  UNL1        0.0000
   2452 H         -10.3373   16.7103   31.8857 H       1  UNL1        0.0000
   2453 H          -8.0058   25.2371   30.3228 H       1  UNL1        0.0000
   2454 H          -4.5134   26.5121   28.8250 H       1  UNL1        0.0000
   2455 H           1.9664   13.4613   29.6253 H       1  UNL1        0.0000
   2456 H          -1.8145   21.4110   28.5353 H       1  UNL1        0.0000
   2457 H          -6.4990   14.4172   36.9406 H       1  UNL1        0.0000
   2458 H           0.7047   14.2493   35.9900 H      22  UNL22       0.0000
   2459 H          -0.7765   13.7802   36.7373 H      22  UNL22       0.0000
   2460 H           1.2788   18.6829   34.8911 H       1  UNL1        0.0000
   2461 H           0.7091   19.0415   33.2726 H       1  UNL1        0.0000
   2462 H           0.2158    9.2945   35.8000 H       1  UNL1        0.0000
   2463 H          -1.0633   10.3950   36.2574 H       1  UNL1        0.0000
   2464 C           1.8935   18.6450   30.9657 C.3     1  UNL1        0.0000
   2465 C         -10.4755   16.7664   34.6199 C.3     1  UNL1        0.0000
   2466 C          -2.8378   11.5581   34.7222 C.3     1  UNL1        0.0000
   2467 C          -5.8432   23.7014   30.8333 C.3     1  UNL1        0.0000
   2468 C           2.7896   18.0406   31.9609 C.ar    1  UNL1        0.0000
   2469 C         -11.4074   17.3914   33.6429 C.ar    1  UNL1        0.0000
   2470 C          -1.8976   10.9437   33.7751 C.ar    1  UNL1        0.0000
   2471 C          -6.7330   24.3482   31.8331 C.2     1  UNL1        0.0000
   2472 C           2.5408   18.1156   33.3673 C.ar    1  UNL1        0.0000
   2473 C         -11.1910   17.2714   32.2548 C.ar    1  UNL1        0.0000
   2474 C          -0.7681   10.1834   34.2281 C.ar    1  UNL1        0.0000
   2475 C          -7.8278   25.1212   31.3882 C.3     1  UNL1        0.0000
   2476 C          -6.4785   24.1775   33.1880 C.2     1  UNL1        0.0000
   2477 C          -2.1453   11.0759   32.3911 C.ar    1  UNL1        0.0000
   2478 C           3.9232   17.3417   31.4851 C.ar    1  UNL1        0.0000
   2479 C         -12.5076   18.0838   34.1415 C.ar    1  UNL1        0.0000
   2480 C           2.1053   15.5592   26.2787 C.ar    1  UNL1        0.0000
   2481 C          -4.3644   27.3508   26.3037 C.2     1  UNL1        0.0000
   2482 C           4.5897   21.3223   26.1527 C.ar    1  UNL1        0.0000
   2483 C          -8.7686   22.8648   26.1333 C.ar    1  UNL1        0.0000
   2484 C          -3.1604   19.3877   31.8385 C.3     1  UNL1        0.0000
   2485 C          -7.9165   12.2934   33.7567 C.3     1  UNL1        0.0000
   2486 C           1.9694   17.0141   26.2555 C.3     1  UNL1        0.0000
   2487 C          -4.4572   25.9173   26.2662 C.2     1  UNL1        0.0000
   2488 C           3.2919   20.7055   26.1996 C.3     1  UNL1        0.0000
   2489 C          -7.3663   23.2791   26.1578 C.3     1  UNL1        0.0000
   2490 C           2.1447   14.8901   27.5084 C.ar    1  UNL1        0.0000
   2491 C          -9.0022   20.9905   38.1614 C.3    41  UNL41       0.0000
   2492 C           5.2450   21.5971   27.3867 C.ar    1  UNL1        0.0000
   2493 C         -14.0364   15.5690   37.9999 C.3    12  UNL12       0.0000
   2494 C           0.6494   14.5246   38.0143 C.3    22  UNL22       0.0000
   2495 C          -9.4658   22.6343   27.3458 C.ar    1  UNL1        0.0000
   2496 C          -2.5128    7.7527   38.1635 C.3    17  UNL17       0.0000
   2497 C          -4.3507   28.1020   27.5330 C.3     1  UNL1        0.0000
   2498 N          -4.2956   27.5032   28.7712 N.3     1  UNL1        0.0000
   2499 N           0.0704   14.3418   36.7754 N.3    22  UNL22       0.0000
   2500 N           1.4599   18.7618   33.8986 N.pl3   1  UNL1        0.0000
   2501 N          -0.4371   10.0252   35.5455 N.pl3   1  UNL1        0.0000
   2502 O           0.7172   19.0501   31.3315 O.3     1  UNL1        0.0000
   2503 O          -9.7065   15.8155   34.2216 O.3     1  UNL1        0.0000
   2504 O          -2.4563   11.6826   35.9434 O.3     1  UNL1        0.0000
   2505 O          -5.9091   24.1311   29.6337 O.3     1  UNL1        0.0000
   2506 O          -5.0728   22.7442   31.2197 O.3     1  UNL1        0.0000
   2507 O          -4.0082   11.9265   34.3167 O.3     1  UNL1        0.0000
   2508 O           2.3054   18.7257   29.7539 O.3     1  UNL1        0.0000
   2509 O         -10.5175   17.2026   35.8196 O.3     1  UNL1        0.0000
   2510 O          -0.3671   18.4708   28.7549 O.3     1  UNL1        0.0000
   2511 O          -8.0133   16.3294   36.3200 O.3     1  UNL1        0.0000
   2512 O           0.5717   20.7581   29.2049 O.3     1  UNL1        0.0000
   2513 O          -9.7655   14.6048   36.8127 O.3     1  UNL1        0.0000
   2514 O          -5.1590   11.3968   36.9074 O.3     1  UNL1        0.0000
   2515 O          -3.3906   23.2922   29.1355 O.3     1  UNL1        0.0000
   2516 O          -4.2050   13.6583   36.4432 O.3     1  UNL1        0.0000
   2517 O          -5.0968   21.5351   28.6180 O.3     1  UNL1        0.0000
   2518 O          -1.9393   19.2079   31.4843 O.3     1  UNL1        0.0000
   2519 O          -8.5741   13.3283   34.1349 O.3     1  UNL1        0.0000
   2520 O          -2.7878   10.5426   38.2094 O.3     1  UNL1        0.0000
   2521 O          -4.5403   25.2158   27.3614 O.2     1  UNL1        0.0000
   2522 O          -1.9856   13.3308   38.2043 O.3     1  UNL1        0.0000
   2523 O          -6.7762   23.3801   27.3014 O.3     1  UNL1        0.0000
   2524 O          -6.7547   11.9988   34.2145 O.3     1  UNL1        0.0000
   2525 O          -3.9022   20.3086   31.3452 O.3     1  UNL1        0.0000
   2526 O           2.7526   20.4053   27.3476 O.3     1  UNL1        0.0000
   2527 O         -11.4018   16.4449   38.1354 O.3     1  UNL1        0.0000
   2528 O           1.9570   17.6510   27.3770 O.3     1  UNL1        0.0000
   2529 O          -9.1336   18.2273   38.2167 O.3     1  UNL1        0.0000
   2530 O          -2.1753   20.8623   29.2560 O.3     1  UNL1        0.0000
   2531 O          -6.8773   13.8585   36.2370 O.3     1  UNL1        0.0000
   2532 O           0.2788   19.6372   26.3232 O.3     1  UNL1        0.0000
   2533 O          -4.2889   22.7392   26.1564 O.3     1  UNL1        0.0000
   2534 H          -3.0192   15.5937   34.5516 H       1  UNL1        0.0000
   2535 H          -6.7727   10.1686   32.5434 H       1  UNL1        0.0000
   2536 H          -2.0826   24.8010   31.3372 H      23  UNL23       0.0000
   2537 H          -1.9738   17.2471   32.9740 H       1  UNL1        0.0000
   2538 H          -6.7014   17.8225   34.4472 H       1  UNL1        0.0000
   2539 H         -10.4533   12.3751   32.8586 H       1  UNL1        0.0000
   2540 H          -5.3748   15.8958   35.2600 H       1  UNL1        0.0000
   2541 H          -5.6569   19.4688   32.8560 H       1  UNL1        0.0000
   2542 H          -0.7698   22.9255   30.3794 H      23  UNL23       0.0000
   2543 H         -14.3877   23.1759   30.8903 H      13  UNL13       0.0000
   2544 C          -3.7553   18.4534   32.8287 C.ar    1  UNL1        0.0000
   2545 C          -4.9179   16.6177   34.5844 C.ar    1  UNL1        0.0000
   2546 C          -0.2936   23.6236   31.0672 C.2    23  UNL23       0.0000
   2547 C          -8.5496   11.3657   32.7857 C.ar    1  UNL1        0.0000
   2548 C          -5.0895   18.6244   33.2422 C.ar    1  UNL1        0.0000
   2549 C          -3.5863   16.4476   34.1838 C.ar    1  UNL1        0.0000
   2550 C          -1.0325   24.6871   31.6025 C.2    23  UNL23       0.0000
   2551 C          -7.8147   10.2900   32.2540 C.ar    1  UNL1        0.0000
   2552 C           1.0550   23.4531   31.4039 C.3    23  UNL23       0.0000
   2553 C          -9.9019   11.5384   32.4349 C.ar    1  UNL1        0.0000
   2554 C          -3.0023   17.3654   33.3089 C.ar    1  UNL1        0.0000
   2555 C          -5.6680   17.7072   34.1220 C.ar    1  UNL1        0.0000
   2556 H          -6.5795   19.4272   38.7376 H      42  UNL42       0.0000
   2557 H          -5.0281   18.0322   36.8827 H      42  UNL42       0.0000
   2558 C          -5.7848   18.7048   38.8745 C.2    42  UNL42       0.0000
   2559 H          -2.4032   17.7909   36.6070 H      42  UNL42       0.0000
   2560 C          -5.0225   18.0214   37.9655 C.2    42  UNL42       0.0000
   2561 H          -6.4361   19.7192   41.2639 H      42  UNL42       0.0000
   2562 N          -5.3695   18.3118   40.1347 N.pl3  42  UNL42       0.0000
   2563 C          -1.9970   17.2113   37.4457 C.3    42  UNL42       0.0000
   2564 H          -1.5241   17.8992   38.1577 H      42  UNL42       0.0000
   2565 C          -5.9488   18.7512   41.4116 C.3    42  UNL42       0.0000
   2566 N          -4.1532   17.2207   38.6862 N.pl3  42  UNL42       0.0000
   2567 H          -6.6899   18.0143   41.7474 H      42  UNL42       0.0000
   2568 H          -1.2278   16.5325   37.0497 H      42  UNL42       0.0000
   2569 C          -4.3807   17.4076   39.9998 C.3    42  UNL42       0.0000
   2570 C          -3.0816   16.3759   38.1186 C.3    42  UNL42       0.0000
   2571 H          -3.5463   15.6670   37.4204 H      42  UNL42       0.0000
   2572 H          -5.1521   18.8467   42.1555 H      42  UNL42       0.0000
   2573 H          -3.8603   16.9111   40.8101 H      42  UNL42       0.0000
   2574 H          -2.6776   15.7937   38.9534 H      42  UNL42       0.0000
   2575 TI         29.1633    2.2298   11.2464 Ti      1  UNL1        0.0000
   2576 TI         39.9938    5.1110    1.8816 Ti      1  UNL1        0.0000
   2577 TI         33.2600   -1.7064    9.4264 Ti      1  UNL1        0.0000
   2578 TI         34.7712    7.4557    3.6534 Ti      1  UNL1        0.0000
   2579 TI         33.7726    9.1340    1.7490 Ti      1  UNL1        0.0000
   2580 TI         35.1482   -1.9608   11.3798 Ti      1  UNL1        0.0000
   2581 TI         30.1125    0.4939    9.3549 Ti      1  UNL1        0.0000
   2582 TI         38.0060    5.4135    3.7291 Ti      1  UNL1        0.0000
   2583 H          29.6652    6.1268   11.0269 H       1  UNL1        0.0000
   2584 H          40.8026    1.2049    2.2023 H       1  UNL1        0.0000
   2585 H          25.2034    1.4731   10.8639 H       1  UNL1        0.0000
   2586 H          43.3760    7.1153    2.0822 H       1  UNL1        0.0000
   2587 H          36.1238   -5.9953   10.9939 H       1  UNL1        0.0000
   2588 H          29.7141    8.5441    2.0711 H       1  UNL1        0.0000
   2589 H          34.2671    7.4972   -0.1241 H       1  UNL1        0.0000
   2590 H          38.1183    4.8683    0.1817 H       1  UNL1        0.0000
   2591 H          35.6581   -2.6279    5.8687 H       1  UNL1        0.0000
   2592 H          33.0478    9.2927    7.2723 H       1  UNL1        0.0000
   2593 H          26.0399    3.8825    8.9990 H       1  UNL1        0.0000
   2594 H          42.7486    3.0267    4.1876 H       1  UNL1        0.0000
   2595 H          28.3410    2.4351    5.6652 H       1  UNL1        0.0000
   2596 H          30.6726   10.9619    4.1022 H       1  UNL1        0.0000
   2597 H          34.1649   12.2368    2.6045 H       1  UNL1        0.0000
   2598 H          40.6448   -0.8139    3.4048 H      54  UNL54       0.0000
   2599 H          36.8638    7.1358    2.3148 H       1  UNL1        0.0000
   2600 H          32.1793    0.1420   10.7200 H       1  UNL1        0.0000
   2601 H          39.3830   -0.0259    9.7694 H       1  UNL1        0.0000
   2602 H          37.9019   -0.4950   10.5168 H       1  UNL1        0.0000
   2603 H          39.9571    4.4077    8.6705 H       1  UNL1        0.0000
   2604 H          39.3874    4.7663    7.0520 H       1  UNL1        0.0000
   2605 H          38.8942   -4.9808    9.5794 H       1  UNL1        0.0000
   2606 H          37.6150   -3.8802   10.0368 H       1  UNL1        0.0000
   2607 C          40.5719    4.3697    4.7451 C.2     1  UNL1        0.0000
   2608 C          28.2028    2.4911    8.3994 C.3     1  UNL1        0.0000
   2609 C          35.8405   -2.7171    8.5017 C.3     1  UNL1        0.0000
   2610 C          32.8351    9.4262    4.6127 C.3     1  UNL1        0.0000
   2611 C          41.4679    3.7654    5.7403 C.2     1  UNL1        0.0000
   2612 C          27.2709    3.1162    7.4223 C.ar    1  UNL1        0.0000
   2613 C          36.7807   -3.3315    7.5545 C.2     1  UNL1        0.0000
   2614 C          31.9453   10.0730    5.6125 C.ar    1  UNL1        0.0000
   2615 C          41.2191    3.8403    7.1467 C.3     1  UNL1        0.0000
   2616 C          27.4873    2.9962    6.0343 C.ar    1  UNL1        0.0000
   2617 C          37.9102   -4.0918    8.0076 C.2     1  UNL1        0.0000
   2618 C          30.8506   10.8460    5.1676 C.ar    1  UNL1        0.0000
   2619 C          32.1998    9.9022    6.9674 C.ar    1  UNL1        0.0000
   2620 C          36.5330   -3.1994    6.1706 C.3     1  UNL1        0.0000
   2621 C          42.6016    3.0664    5.2646 C.3     1  UNL1        0.0000
   2622 C          26.1707    3.8086    7.9210 C.ar    1  UNL1        0.0000
   2623 C          40.7836    1.2840    0.0582 C.2     1  UNL1        0.0000
   2624 C          34.3139   13.0756    0.0832 C.2     1  UNL1        0.0000
   2625 C          43.2681    7.0471   -0.0678 C.2     1  UNL1        0.0000
   2626 C          29.9097    8.5895   -0.0872 C.2     1  UNL1        0.0000
   2627 C          35.5179    5.1125    5.6180 C.3     1  UNL1        0.0000
   2628 C          30.7618   -1.9819    7.5361 C.2     1  UNL1        0.0000
   2629 C          40.6478    2.7388    0.0350 C.2     1  UNL1        0.0000
   2630 C          34.2211   11.6421    0.0457 C.2     1  UNL1        0.0000
   2631 C          41.9702    6.4303   -0.0210 C.2     1  UNL1        0.0000
   2632 C          31.3120    9.0039   -0.0628 C.2     1  UNL1        0.0000
   2633 C          40.8230    0.6149    1.2879 C.3     1  UNL1        0.0000
   2634 C          29.6761    6.7152   11.9408 C.ar    1  UNL1        0.0000
   2635 C          43.9234    7.3219    1.1661 C.3     1  UNL1        0.0000
   2636 C          24.6420    1.2938   11.7793 C.ar    1  UNL1        0.0000
   2637 C          39.3277    0.2494   11.7938 C.3     1  UNL1        0.0000
   2638 C          29.2125    8.3591    1.1253 C.3     1  UNL1        0.0000
   2639 C          36.1655   -6.5225   11.9429 C.3     1  UNL1        0.0000
   2640 C          34.3277   13.8268    1.3125 C.3     1  UNL1        0.0000
   2641 N          34.3827   13.2279    2.5506 N.3     1  UNL1        0.0000
   2642 N          38.7487    0.0666   10.5548 N.3     1  UNL1        0.0000
   2643 N          40.1382    4.4866    7.6780 N.3     1  UNL1        0.0000
   2644 N          38.2412   -4.2500    9.3250 N.pl3   1  UNL1        0.0000
   2645 O          39.3955    4.7748    5.1109 O.2     1  UNL1        0.0000
   2646 O          28.9718    1.5403    8.0011 O.3     1  UNL1        0.0000
   2647 O          36.2220   -2.5927    9.7228 O.3     1  UNL1        0.0000
   2648 O          32.7692    9.8559    3.4131 O.3     1  UNL1        0.0000
   2649 O          33.6056    8.4690    4.9992 O.3     1  UNL1        0.0000
   2650 O          34.6701   -2.3487    8.0962 O.3     1  UNL1        0.0000
   2651 O          40.9837    4.4505    3.5334 O.2     1  UNL1        0.0000
   2652 O          28.1608    2.9274    9.5991 O.3     1  UNL1        0.0000
   2653 O          38.3112    4.1956    2.5344 O.3     1  UNL1        0.0000
   2654 O          30.6650    2.0542   10.0994 O.3     1  UNL1        0.0000
   2655 O          39.2500    6.4829    2.9843 O.3     1  UNL1        0.0000
   2656 O          28.9128    0.3296   10.5921 O.3     1  UNL1        0.0000
   2657 O          33.5193   -2.8784   10.6868 O.3     1  UNL1        0.0000
   2658 O          35.2878    9.0170    2.9149 O.3     1  UNL1        0.0000
   2659 O          34.4733   -0.6169   10.2227 O.3     1  UNL1        0.0000
   2660 O          33.5815    7.2599    2.3975 O.3     1  UNL1        0.0000
   2661 O          36.7391    4.9327    5.2637 O.3     1  UNL1        0.0000
   2662 O          30.1042   -0.9469    7.9143 O.2     1  UNL1        0.0000
   2663 O          35.8906   -3.7326   11.9889 O.2     1  UNL1        0.0000
   2664 O          34.1380   10.9406    1.1409 O.2     1  UNL1        0.0000
   2665 O          36.6927   -0.9445   11.9838 O.2     1  UNL1        0.0000
   2666 O          31.9021    9.1049    1.0808 O.2     1  UNL1        0.0000
   2667 O          31.9237   -2.2764    7.9939 O.2     1  UNL1        0.0000
   2668 O          34.7761    6.0334    5.1246 O.3     1  UNL1        0.0000
   2669 O          41.4309    6.1301    1.1270 O.2     1  UNL1        0.0000
   2670 O          27.2766    2.1697   11.9148 O.3     1  UNL1        0.0000
   2671 O          40.6353    3.3758    1.1564 O.2     1  UNL1        0.0000
   2672 O          29.5448    3.9521   11.9961 O.3     1  UNL1        0.0000
   2673 O          36.5030    6.5871    3.0354 O.3     1  UNL1        0.0000
   2674 O          31.8011   -0.4167   10.0165 O.3     1  UNL1        0.0000
   2675 O          38.9571    5.3620    0.1026 O.3     1  UNL1        0.0000
   2676 O          34.3895    8.4640   -0.0641 O.3     1  UNL1        0.0000
   2677 H          35.6591    1.3185    8.3310 H       1  UNL1        0.0000
   2678 H          31.9057   -4.1066    6.3229 H       1  UNL1        0.0000
   2679 H          36.5957   10.5258    5.1167 H      24  UNL24       0.0000
   2680 H          36.7045    2.9718    6.7535 H       1  UNL1        0.0000
   2681 H          31.9769    3.5473    8.2267 H       1  UNL1        0.0000
   2682 H          28.2250   -1.9001    6.6381 H       1  UNL1        0.0000
   2683 H          33.3035    1.6206    9.0395 H       1  UNL1        0.0000
   2684 H          33.0214    5.1936    6.6355 H       1  UNL1        0.0000
   2685 H          37.9085    8.6503    4.1589 H      24  UNL24       0.0000
   2686 H          24.2906    8.9007    4.6697 H       1  UNL1        0.0000
   2687 C          34.9230    4.1781    6.6081 C.ar    1  UNL1        0.0000
   2688 C          33.7604    2.3424    8.3638 C.ar    1  UNL1        0.0000
   2689 C          38.3847    9.3483    4.8466 C.2    24  UNL24       0.0000
   2690 C          30.1287   -2.9095    6.5651 C.2     1  UNL1        0.0000
   2691 C          33.5888    4.3491    7.0216 C.ar    1  UNL1        0.0000
   2692 C          35.0921    2.1724    7.9632 C.ar    1  UNL1        0.0000
   2693 C          37.6459   10.4119    5.3820 C.2    24  UNL24       0.0000
   2694 C          30.8636   -3.9852    6.0335 C.3     1  UNL1        0.0000
   2695 C          39.7334    9.1779    5.1834 C.3    24  UNL24       0.0000
   2696 C          28.7764   -2.7368    6.2144 C.3     1  UNL1        0.0000
   2697 C          35.6760    3.0902    7.0884 C.ar    1  UNL1        0.0000
   2698 C          33.0103    3.4319    7.9015 C.ar    1  UNL1        0.0000
   2699 H          32.0989    5.1520   12.5170 H      44  UNL44       0.0000
   2700 H          33.6502    3.7570   10.6621 H      44  UNL44       0.0000
   2701 C          32.8935    4.4296   12.6539 C.2    44  UNL44       0.0000
   2702 H          36.2752    3.5156   10.3864 H      44  UNL44       0.0000
   2703 C          33.6558    3.7462   11.7449 C.2    44  UNL44       0.0000
   2704 H          32.2423    5.4440   15.0434 H      44  UNL44       0.0000
   2705 N          33.3088    4.0366   13.9142 N.pl3  44  UNL44       0.0000
   2706 C          36.6814    2.9361   11.2252 C.3    44  UNL44       0.0000
   2707 H          37.1543    3.6240   11.9372 H      44  UNL44       0.0000
   2708 C          32.7295    4.4760   15.1910 C.3    44  UNL44       0.0000
   2709 N          34.5251    2.9455   12.4656 N.pl3  44  UNL44       0.0000
   2710 H          31.9885    3.7391   15.5268 H      44  UNL44       0.0000
   2711 H          37.4505    2.2573   10.8291 H      44  UNL44       0.0000
   2712 C          34.2976    3.1323   13.7793 C.3    44  UNL44       0.0000
   2713 C          35.5967    2.1007   11.8981 C.3    44  UNL44       0.0000
   2714 H          35.1320    1.3918   11.1998 H      44  UNL44       0.0000
   2715 H          33.5262    4.5714   15.9350 H      44  UNL44       0.0000
   2716 H          34.8180    2.6359   14.5895 H      44  UNL44       0.0000
   2717 H          36.0007    1.5185   12.7328 H      44  UNL44       0.0000
   2718 TI         24.8508   -5.0094   24.3567 Ti      1  UNL1        0.0000
   2719 TI         35.6813   -2.1282   14.9919 Ti      1  UNL1        0.0000
   2720 TI         28.9475   -8.9456   22.5367 Ti      1  UNL1        0.0000
   2721 TI         30.4587    0.2165   16.7637 Ti      1  UNL1        0.0000
   2722 TI         29.4601    1.8948   14.8593 Ti      1  UNL1        0.0000
   2723 TI         30.8357   -9.2000   24.4901 Ti      1  UNL1        0.0000
   2724 TI         25.8000   -6.7453   22.4652 Ti      1  UNL1        0.0000
   2725 TI         33.6935   -1.8257   16.8393 Ti      1  UNL1        0.0000
   2726 H          25.3527   -1.1124   24.1372 H       1  UNL1        0.0000
   2727 H          36.4901   -6.0343   15.3125 H       1  UNL1        0.0000
   2728 H          20.8909   -5.7661   23.9742 H       1  UNL1        0.0000
   2729 H          39.0634   -0.1239   15.1925 H       1  UNL1        0.0000
   2730 H          31.8113  -13.2345   24.1041 H       1  UNL1        0.0000
   2731 H          25.4016    1.3049   15.1813 H       1  UNL1        0.0000
   2732 H          29.9546    0.2580   12.9862 H       1  UNL1        0.0000
   2733 H          33.8058   -2.3709   13.2919 H       1  UNL1        0.0000
   2734 H          31.3456   -9.8671   18.9790 H       1  UNL1        0.0000
   2735 H          28.7353    2.0535   20.3826 H       1  UNL1        0.0000
   2736 H          21.7274   -3.3567   22.1093 H       1  UNL1        0.0000
   2737 H          38.4360   -4.2126   17.2979 H       1  UNL1        0.0000
   2738 H          24.0285   -4.8041   18.7754 H       1  UNL1        0.0000
   2739 H          26.3600    3.7227   17.2125 H       1  UNL1        0.0000
   2740 H          29.8524    4.9976   15.7147 H       1  UNL1        0.0000
   2741 H          36.3322   -8.0531   16.5150 H      54  UNL54       0.0000
   2742 H          32.5513   -0.1034   15.4250 H       1  UNL1        0.0000
   2743 H          27.8668   -7.0972   23.8303 H       1  UNL1        0.0000
   2744 H          35.0704   -7.2651   22.8797 H       1  UNL1        0.0000
   2745 H          33.5893   -7.7342   23.6271 H       1  UNL1        0.0000
   2746 H          35.6446   -2.8315   21.7808 H       1  UNL1        0.0000
   2747 H          35.0748   -2.4729   20.1623 H       1  UNL1        0.0000
   2748 H          34.5816  -12.2200   22.6897 H       1  UNL1        0.0000
   2749 H          33.3025  -11.1194   23.1471 H       1  UNL1        0.0000
   2750 C          36.2593   -2.8695   17.8554 C.2     1  UNL1        0.0000
   2751 C          23.8903   -4.7481   21.5096 C.3     1  UNL1        0.0000
   2752 C          31.5280   -9.9563   21.6120 C.3     1  UNL1        0.0000
   2753 C          28.5226    2.1870   17.7230 C.3     1  UNL1        0.0000
   2754 C          37.1553   -3.4738   18.8506 C.2     1  UNL1        0.0000
   2755 C          22.9584   -4.1230   20.5326 C.ar    1  UNL1        0.0000
   2756 C          32.4682  -10.5707   20.6648 C.2     1  UNL1        0.0000
   2757 C          27.6328    2.8338   18.7228 C.ar    1  UNL1        0.0000
   2758 C          36.9066   -3.3989   20.2570 C.3     1  UNL1        0.0000
   2759 C          23.1748   -4.2430   19.1446 C.ar    1  UNL1        0.0000
   2760 C          33.5977  -11.3310   21.1178 C.2     1  UNL1        0.0000
   2761 C          26.5380    3.6068   18.2779 C.ar    1  UNL1        0.0000
   2762 C          27.8872    2.6630   20.0777 C.ar    1  UNL1        0.0000
   2763 C          32.2205  -10.4386   19.2809 C.3     1  UNL1        0.0000
   2764 C          38.2890   -4.1728   18.3749 C.3     1  UNL1        0.0000
   2765 C          21.8582   -3.4306   21.0313 C.ar    1  UNL1        0.0000
   2766 C          36.4711   -5.9552   13.1685 C.2     1  UNL1        0.0000
   2767 C          30.0014    5.8364   13.1935 C.ar    1  UNL1        0.0000
   2768 C          38.9555   -0.1921   13.0424 C.2     1  UNL1        0.0000
   2769 C          25.5972    1.3503   13.0231 C.ar    1  UNL1        0.0000
   2770 C          31.2054   -2.1267   18.7283 C.3     1  UNL1        0.0000
   2771 C          26.4493   -9.2211   20.6464 C.2     1  UNL1        0.0000
   2772 C          36.3352   -4.5004   13.1453 C.2     1  UNL1        0.0000
   2773 C          29.9086    4.4029   13.1560 C.3     1  UNL1        0.0000
   2774 C          37.6577   -0.8089   13.0893 C.2     1  UNL1        0.0000
   2775 C          26.9995    1.7647   13.0475 C.3     1  UNL1        0.0000
   2776 C          36.5104   -6.6243   14.3981 C.3     1  UNL1        0.0000
   2777 C          25.3636   -0.5240   25.0511 C.ar    1  UNL1        0.0000
   2778 C          39.6108    0.0827   14.2764 C.3     1  UNL1        0.0000
   2779 C          20.3294   -5.9454   24.8896 C.ar    1  UNL1        0.0000
   2780 C          35.0152   -6.9898   24.9041 C.3     1  UNL1        0.0000
   2781 C          24.9000    1.1199   14.2355 C.ar    1  UNL1        0.0000
   2782 C          31.8530  -13.7617   25.0532 C.3     1  UNL1        0.0000
   2783 C          30.0151    6.5876   14.4227 C.ar    1  UNL1        0.0000
   2784 N          30.0702    5.9887   15.6609 N.pl3   1  UNL1        0.0000
   2785 N          34.4362   -7.1726   23.6651 N.3     1  UNL1        0.0000
   2786 N          35.8257   -2.7526   20.7883 N.3     1  UNL1        0.0000
   2787 N          33.9287  -11.4892   22.4352 N.pl3   1  UNL1        0.0000
   2788 O          35.0830   -2.4644   18.2212 O.2     1  UNL1        0.0000
   2789 O          24.6593   -5.6989   21.1114 O.3     1  UNL1        0.0000
   2790 O          31.9095   -9.8319   22.8331 O.3     1  UNL1        0.0000
   2791 O          28.4567    2.6167   16.5234 O.3     1  UNL1        0.0000
   2792 O          29.2930    1.2298   18.1095 O.3     1  UNL1        0.0000
   2793 O          30.3576   -9.5879   21.2065 O.3     1  UNL1        0.0000
   2794 O          36.6712   -2.7887   16.6436 O.2     1  UNL1        0.0000
   2795 O          23.8483   -4.3118   22.7094 O.3     1  UNL1        0.0000
   2796 O          33.9987   -3.0436   15.6446 O.3     1  UNL1        0.0000
   2797 O          26.3525   -5.1850   23.2097 O.3     1  UNL1        0.0000
   2798 O          34.9375   -0.7563   16.0946 O.3     1  UNL1        0.0000
   2799 O          24.6003   -6.9097   23.7024 O.3     1  UNL1        0.0000
   2800 O          29.2068  -10.1176   23.7971 O.3     1  UNL1        0.0000
   2801 O          30.9752    1.7778   16.0252 O.3     1  UNL1        0.0000
   2802 O          30.1608   -7.8561   23.3329 O.3     1  UNL1        0.0000
   2803 O          29.2690    0.0207   15.5078 O.3     1  UNL1        0.0000
   2804 O          32.4265   -2.3065   18.3740 O.3     1  UNL1        0.0000
   2805 O          25.7917   -8.1861   21.0246 O.2     1  UNL1        0.0000
   2806 O          31.5780  -10.9718   25.0992 O.2     1  UNL1        0.0000
   2807 O          29.8255    3.7014   14.2512 O.3     1  UNL1        0.0000
   2808 O          32.3802   -8.1837   25.0940 O.2     1  UNL1        0.0000
   2809 O          27.5896    1.8657   14.1911 O.3     1  UNL1        0.0000
   2810 O          27.6111   -9.5156   21.1042 O.2     1  UNL1        0.0000
   2811 O          30.4636   -1.2058   18.2349 O.3     1  UNL1        0.0000
   2812 O          37.1184   -1.1091   14.2373 O.2     1  UNL1        0.0000
   2813 O          22.9640   -5.0695   25.0251 O.3     1  UNL1        0.0000
   2814 O          36.3228   -3.8634   14.2667 O.2     1  UNL1        0.0000
   2815 O          25.2322   -3.2872   25.1064 O.3     1  UNL1        0.0000
   2816 O          32.1905   -0.6521   16.1457 O.3     1  UNL1        0.0000
   2817 O          27.4885   -7.6559   23.1267 O.3     1  UNL1        0.0000
   2818 O          34.6446   -1.8772   13.2129 O.3     1  UNL1        0.0000
   2819 O          30.0769    1.2248   13.0462 O.3     1  UNL1        0.0000
   2820 H          31.3466   -5.9207   21.4413 H       1  UNL1        0.0000
   2821 H          27.5931  -11.3458   19.4331 H       1  UNL1        0.0000
   2822 H          32.2832    3.2866   18.2269 H      25  UNL25       0.0000
   2823 H          32.3920   -4.2674   19.8637 H       1  UNL1        0.0000
   2824 H          27.6644   -3.6919   21.3370 H       1  UNL1        0.0000
   2825 H          23.9125   -9.1393   19.7483 H       1  UNL1        0.0000
   2826 H          28.9910   -5.6186   22.1497 H       1  UNL1        0.0000
   2827 H          28.7089   -2.0456   19.7458 H       1  UNL1        0.0000
   2828 H          33.5960    1.4111   17.2691 H      25  UNL25       0.0000
   2829 H          19.9781    1.6615   17.7800 H       1  UNL1        0.0000
   2830 C          30.6105   -3.0611   19.7184 C.ar    1  UNL1        0.0000
   2831 C          29.4479   -4.8968   21.4741 C.ar    1  UNL1        0.0000
   2832 C          34.0722    2.1091   17.9569 C.2    25  UNL25       0.0000
   2833 C          25.8162  -10.1487   19.6754 C.2     1  UNL1        0.0000
   2834 C          29.2763   -2.8901   20.1319 C.ar    1  UNL1        0.0000
   2835 C          30.7795   -5.0668   21.0735 C.ar    1  UNL1        0.0000
   2836 C          33.3333    3.1727   18.4922 C.2    25  UNL25       0.0000
   2837 C          26.5511  -11.2244   19.1438 C.3     1  UNL1        0.0000
   2838 C          35.4208    1.9387   18.2937 C.3    25  UNL25       0.0000
   2839 C          24.4639   -9.9760   19.3247 C.3     1  UNL1        0.0000
   2840 C          31.3634   -4.1490   20.1986 C.ar    1  UNL1        0.0000
   2841 C          28.6978   -3.8073   21.0117 C.ar    1  UNL1        0.0000
   2842 H          27.7863   -2.0872   25.6273 H      46  UNL46       0.0000
   2843 H          29.3377   -3.4822   23.7724 H      46  UNL46       0.0000
   2844 C          28.5810   -2.8096   25.7642 C.2    46  UNL46       0.0000
   2845 H          31.9626   -3.7236   23.4967 H      46  UNL46       0.0000
   2846 C          29.3433   -3.4930   24.8552 C.2    46  UNL46       0.0000
   2847 H          27.9297   -1.7952   28.1536 H      46  UNL46       0.0000
   2848 N          28.9962   -3.2026   27.0245 N.pl3  46  UNL46       0.0000
   2849 C          32.3688   -4.3031   24.3354 C.3    46  UNL46       0.0000
   2850 H          32.8417   -3.6152   25.0474 H      46  UNL46       0.0000
   2851 C          28.4170   -2.7632   28.3013 C.3    46  UNL46       0.0000
   2852 N          30.2126   -4.2937   25.5759 N.pl3  46  UNL46       0.0000
   2853 H          27.6759   -3.5001   28.6371 H      46  UNL46       0.0000
   2854 H          33.1380   -4.9819   23.9394 H      46  UNL46       0.0000
   2855 C          29.9850   -4.1069   26.8896 C.3    46  UNL46       0.0000
   2856 C          31.2841   -5.1385   25.0084 C.3    46  UNL46       0.0000
   2857 H          30.8195   -5.8474   24.3101 H      46  UNL46       0.0000
   2858 H          29.2137   -2.6678   29.0453 H      46  UNL46       0.0000
   2859 H          30.5055   -4.6033   27.6998 H      46  UNL46       0.0000
   2860 H          31.6882   -5.7207   25.8431 H      46  UNL46       0.0000
   2861 TI         20.5383  -12.2486   37.4669 Ti      1  UNL1        0.0000
   2862 TI         31.3688   -9.3674   28.1021 Ti      1  UNL1        0.0000
   2863 TI         24.6350  -16.1848   35.6470 Ti      1  UNL1        0.0000
   2864 TI         26.1462   -7.0227   29.8739 Ti      1  UNL1        0.0000
   2865 TI         25.1476   -5.3444   27.9695 Ti      1  UNL1        0.0000
   2866 TI         26.5232  -16.4392   37.6003 Ti      1  UNL1        0.0000
   2867 TI         21.4875  -13.9845   35.5755 Ti      1  UNL1        0.0000
   2868 TI         29.3809   -9.0649   29.9496 Ti      1  UNL1        0.0000
   2869 H          21.0402   -8.3516   37.2475 H      26  UNL26       0.0000
   2870 H          32.1775  -13.2735   28.4228 H       1  UNL1        0.0000
   2871 H          16.5784  -13.0053   37.0845 H      15  UNL15       0.0000
   2872 H          34.7509   -7.3631   28.3028 H       1  UNL1        0.0000
   2873 H          27.4988  -20.4737   37.2144 H      28  UNL28       0.0000
   2874 H          21.0891   -5.9343   28.2916 H       1  UNL1        0.0000
   2875 H          25.6420   -6.9812   26.0965 H       1  UNL1        0.0000
   2876 H          29.4932   -9.6101   26.4022 H       1  UNL1        0.0000
   2877 H          27.0331  -17.1063   32.0892 H       1  UNL1        0.0000
   2878 H          24.4227   -5.1857   33.4929 H       1  UNL1        0.0000
   2879 H          17.4149  -10.5959   35.2196 H       1  UNL1        0.0000
   2880 H          34.1235  -11.4518   30.4081 H       1  UNL1        0.0000
   2881 H          19.7160  -12.0433   31.8857 H       1  UNL1        0.0000
   2882 H          22.0475   -3.5165   30.3228 H       1  UNL1        0.0000
   2883 H          25.5398   -2.2416   28.8250 H       1  UNL1        0.0000
   2884 H          32.0197  -15.2923   29.6253 H      54  UNL54       0.0000
   2885 H          28.2388   -7.3426   28.5353 H       1  UNL1        0.0000
   2886 H          23.5543  -14.3364   36.9406 H       1  UNL1        0.0000
   2887 H          30.7579  -14.5043   35.9900 H      27  UNL27       0.0000
   2888 H          29.2768  -14.9734   36.7373 H      27  UNL27       0.0000
   2889 H          31.3320  -10.0707   34.8911 H       1  UNL1        0.0000
   2890 H          30.7623   -9.7121   33.2726 H       1  UNL1        0.0000
   2891 H          30.2691  -19.4592   35.8000 H       1  UNL1        0.0000
   2892 H          28.9900  -18.3586   36.2574 H       1  UNL1        0.0000
   2893 C          31.9468  -10.1087   30.9657 C.2     1  UNL1        0.0000
   2894 C          19.5777  -11.9873   34.6199 C.3     1  UNL1        0.0000
   2895 C          27.2155  -17.1955   34.7222 C.3     1  UNL1        0.0000
   2896 C          24.2100   -5.0522   30.8333 C.3     1  UNL1        0.0000
   2897 C          32.8428  -10.7130   31.9609 C.2     1  UNL1        0.0000
   2898 C          18.6458  -11.3622   33.6429 C.ar    1  UNL1        0.0000
   2899 C          28.1557  -17.8099   33.7751 C.2     1  UNL1        0.0000
   2900 C          23.3202   -4.4054   31.8331 C.ar    1  UNL1        0.0000
   2901 C          32.5941  -10.6381   33.3673 C.3     1  UNL1        0.0000
   2902 C          18.8622  -11.4822   32.2548 C.ar    1  UNL1        0.0000
   2903 C          29.2851  -18.5702   34.2281 C.2     1  UNL1        0.0000
   2904 C          22.2255   -3.6324   31.3882 C.ar    1  UNL1        0.0000
   2905 C          23.5747   -4.5762   33.1880 C.ar    1  UNL1        0.0000
   2906 C          27.9080  -17.6778   32.3911 C.3     1  UNL1        0.0000
   2907 C          33.9765  -11.4120   31.4851 C.3     1  UNL1        0.0000
   2908 C          17.5457  -10.6698   34.1415 C.ar    1  UNL1        0.0000
   2909 C          32.1586  -13.1944   26.2787 C.2     1  UNL1        0.0000
   2910 C          25.6888   -1.4028   26.3037 C.ar    1  UNL1        0.0000
   2911 C          34.6430   -7.4313   26.1527 C.2     1  UNL1        0.0000
   2912 C          21.2847   -5.8889   26.1333 C.ar    1  UNL1        0.0000
   2913 C          26.8929   -9.3659   31.8385 C.3     1  UNL1        0.0000
   2914 C          22.1368  -16.4603   33.7567 C.2     1  UNL1        0.0000
   2915 C          32.0227  -11.7396   26.2555 C.2     1  UNL1        0.0000
   2916 C          25.5961   -2.8363   26.2662 C.3     1  UNL1        0.0000
   2917 C          33.3452   -8.0481   26.1996 C.2     1  UNL1        0.0000
   2918 C          22.6870   -5.4745   26.1578 C.3     1  UNL1        0.0000
   2919 C          32.1979  -13.8635   27.5084 C.3     1  UNL1        0.0000
   2920 C          21.0511   -7.7632   38.1614 C.3    26  UNL26       0.0000
   2921 C          35.2983   -7.1565   27.3867 C.3     1  UNL1        0.0000
   2922 C          16.0169  -13.1846   37.9999 C.3    15  UNL15       0.0000
   2923 C          30.7027  -14.2290   38.0143 C.3    27  UNL27       0.0000
   2924 C          20.5875   -6.1193   27.3458 C.ar    1  UNL1        0.0000
   2925 C          27.5404  -21.0009   38.1635 C.3    48  UNL48       0.0000
   2926 C          25.7026   -0.6516   27.5330 C.ar    1  UNL1        0.0000
   2927 N          25.7577   -1.2505   28.7712 N.pl3   1  UNL1        0.0000
   2928 N          30.1236  -14.4118   36.7754 N.3    27  UNL27       0.0000
   2929 N          31.5132   -9.9918   33.8986 N.3     1  UNL1        0.0000
   2930 N          29.6161  -18.7284   35.5455 N.pl3   1  UNL1        0.0000
   2931 O          30.7705   -9.7036   31.3315 O.2     1  UNL1        0.0000
   2932 O          20.3467  -12.9381   34.2216 O.3     1  UNL1        0.0000
   2933 O          27.5969  -17.0711   35.9434 O.3     1  UNL1        0.0000
   2934 O          24.1442   -4.6225   29.6337 O.3     1  UNL1        0.0000
   2935 O          24.9805   -6.0094   31.2197 O.3     1  UNL1        0.0000
   2936 O          26.0450  -16.8271   34.3167 O.3     1  UNL1        0.0000
   2937 O          32.3587  -10.0279   29.7539 O.2     1  UNL1        0.0000
   2938 O          19.5357  -11.5510   35.8196 O.3     1  UNL1        0.0000
   2939 O          29.6862  -10.2828   28.7549 O.3     1  UNL1        0.0000
   2940 O          22.0399  -12.4242   36.3200 O.3     1  UNL1        0.0000
   2941 O          30.6249   -7.9955   29.2049 O.3     1  UNL1        0.0000
   2942 O          20.2878  -14.1489   36.8127 O.3     1  UNL1        0.0000
   2943 O          24.8943  -17.3568   36.9074 O.3     1  UNL1        0.0000
   2944 O          26.6627   -5.4614   29.1355 O.3     1  UNL1        0.0000
   2945 O          25.8482  -15.0953   36.4432 O.3     1  UNL1        0.0000
   2946 O          24.9565   -7.2185   28.6180 O.3     1  UNL1        0.0000
   2947 O          28.1140   -9.5458   31.4843 O.3     1  UNL1        0.0000
   2948 O          21.4791  -15.4253   34.1349 O.2     1  UNL1        0.0000
   2949 O          27.2655  -18.2110   38.2094 O.3     1  UNL1        0.0000
   2950 O          25.5130   -3.5378   27.3614 O.3     1  UNL1        0.0000
   2951 O          28.0676  -15.4229   38.2043 O.3     1  UNL1        0.0000
   2952 O          23.2770   -5.3735   27.3014 O.3     1  UNL1        0.0000
   2953 O          23.2986  -16.7548   34.2145 O.2     1  UNL1        0.0000
   2954 O          26.1510   -8.4450   31.3452 O.3     1  UNL1        0.0000
   2955 O          32.8058   -8.3483   27.3476 O.2     1  UNL1        0.0000
   2956 O          18.6515  -12.3087   38.1354 O.3     1  UNL1        0.0000
   2957 O          32.0103  -11.1026   27.3770 O.2     1  UNL1        0.0000
   2958 O          20.9197  -10.5264   38.2167 O.3     1  UNL1        0.0000
   2959 O          27.8779   -7.8913   29.2560 O.3     1  UNL1        0.0000
   2960 O          23.1760  -14.8951   36.2370 O.3     1  UNL1        0.0000
   2961 O          30.3321   -9.1165   26.3232 O.3     1  UNL1        0.0000
   2962 O          25.7644   -6.0144   26.1564 O.3     1  UNL1        0.0000
   2963 H          27.0341  -13.1599   34.5516 H       1  UNL1        0.0000
   2964 H          23.2806  -18.5850   32.5434 H       1  UNL1        0.0000
   2965 H          27.9707   -3.9526   31.3372 H      29  UNL29       0.0000
   2966 H          28.0794  -11.5066   32.9740 H       1  UNL1        0.0000
   2967 H          23.3519  -10.9312   34.4472 H       1  UNL1        0.0000
   2968 H          19.6000  -16.3785   32.8586 H       1  UNL1        0.0000
   2969 H          24.6785  -12.8578   35.2600 H       1  UNL1        0.0000
   2970 H          24.3963   -9.2848   32.8560 H       1  UNL1        0.0000
   2971 H          29.2834   -5.8281   30.3794 H      29  UNL29       0.0000
   2972 H          15.6656   -5.5777   30.8903 H       1  UNL1        0.0000
   2973 C          26.2980  -10.3003   32.8287 C.ar    1  UNL1        0.0000
   2974 C          25.1353  -12.1360   34.5844 C.ar    1  UNL1        0.0000
   2975 C          29.7597   -5.1301   31.0672 C.2    29  UNL29       0.0000
   2976 C          21.5036  -17.3879   32.7857 C.2     1  UNL1        0.0000
   2977 C          24.9637  -10.1293   33.2422 C.ar    1  UNL1        0.0000
   2978 C          26.4670  -12.3060   34.1838 C.ar    1  UNL1        0.0000
   2979 C          29.0208   -4.0665   31.6025 C.2    29  UNL29       0.0000
   2980 C          22.2386  -18.4636   32.2540 C.3     1  UNL1        0.0000
   2981 C          31.1083   -5.3005   31.4039 C.3    29  UNL29       0.0000
   2982 C          20.1514  -17.2152   32.4349 C.3     1  UNL1        0.0000
   2983 C          27.0509  -11.3882   33.3089 C.ar    1  UNL1        0.0000
   2984 C          24.3852  -11.0465   34.1220 C.ar    1  UNL1        0.0000
   2985 H          23.4738   -9.3264   38.7376 H      49  UNL49       0.0000
   2986 H          25.0251  -10.7214   36.8827 H      49  UNL49       0.0000
   2987 C          24.2684  -10.0488   38.8745 C.2    49  UNL49       0.0000
   2988 H          27.6501  -10.9628   36.6070 H      49  UNL49       0.0000
   2989 C          25.0308  -10.7322   37.9655 C.2    49  UNL49       0.0000
   2990 H          23.6172   -9.0344   41.2639 H      49  UNL49       0.0000
   2991 N          24.6837  -10.4418   40.1347 N.pl3  49  UNL49       0.0000
   2992 C          28.0563  -11.5423   37.4457 C.3    49  UNL49       0.0000
   2993 H          28.5292  -10.8544   38.1577 H      49  UNL49       0.0000
   2994 C          24.1045  -10.0024   41.4116 C.3    49  UNL49       0.0000
   2995 N          25.9001  -11.5329   38.6862 N.pl3  49  UNL49       0.0000
   2996 H          23.3634  -10.7393   41.7474 H      49  UNL49       0.0000
   2997 H          28.8255  -12.2211   37.0497 H      49  UNL49       0.0000
   2998 C          25.6725  -11.3461   39.9998 C.3    49  UNL49       0.0000
   2999 C          26.9716  -12.3777   38.1186 C.3    49  UNL49       0.0000
   3000 H          26.5069  -13.0866   37.4204 H      49  UNL49       0.0000
   3001 H          24.9011   -9.9070   42.1555 H      49  UNL49       0.0000
   3002 H          26.1930  -11.8425   40.8101 H      49  UNL49       0.0000
   3003 H          27.3757  -12.9599   38.9534 H      49  UNL49       0.0000
   3004 TI         22.1414   16.6066   11.2464 Ti      1  UNL1        0.0000
   3005 TI         32.9719   19.4878    1.8816 Ti      1  UNL1        0.0000
   3006 TI         26.2381   12.6704    9.4264 Ti      1  UNL1        0.0000
   3007 TI         27.7493   21.8325    3.6534 Ti      1  UNL1        0.0000
   3008 TI         26.7507   23.5108    1.7490 Ti      1  UNL1        0.0000
   3009 TI         28.1263   12.4160   11.3798 Ti      1  UNL1        0.0000
   3010 TI         23.0906   14.8707    9.3549 Ti      1  UNL1        0.0000
   3011 TI         30.9841   19.7903    3.7291 Ti      1  UNL1        0.0000
   3012 H          22.6433   20.5037   11.0269 H       1  UNL1        0.0000
   3013 H          33.7807   15.5817    2.2023 H       1  UNL1        0.0000
   3014 H          18.1815   15.8499   10.8639 H       1  UNL1        0.0000
   3015 H          36.3540   21.4921    2.0822 H       1  UNL1        0.0000
   3016 H          29.1019    8.3815   10.9939 H       1  UNL1        0.0000
   3017 H          22.6922   22.9209    2.0711 H       1  UNL1        0.0000
   3018 H          27.2452   21.8740   -0.1241 H       1  UNL1        0.0000
   3019 H          31.0964   19.2451    0.1817 H       1  UNL1        0.0000
   3020 H          28.6362   11.7489    5.8687 H       1  UNL1        0.0000
   3021 H          26.0258   23.6695    7.2723 H       1  UNL1        0.0000
   3022 H          19.0180   18.2593    8.9990 H       1  UNL1        0.0000
   3023 H          35.7266   17.4035    4.1876 H       1  UNL1        0.0000
   3024 H          21.3191   16.8119    5.6652 H       1  UNL1        0.0000
   3025 H          23.6506   25.3387    4.1022 H       1  UNL1        0.0000
   3026 H          27.1430   26.6137    2.6045 H       1  UNL1        0.0000
   3027 H          33.6228   13.5629    3.4048 H       1  UNL1        0.0000
   3028 H          29.8419   21.5126    2.3148 H       1  UNL1        0.0000
   3029 H          25.1574   14.5188   10.7200 H       1  UNL1        0.0000
   3030 H          32.3610   14.3509    9.7694 H       1  UNL1        0.0000
   3031 H          30.8799   13.8818   10.5168 H       1  UNL1        0.0000
   3032 H          32.9352   18.7845    8.6705 H       1  UNL1        0.0000
   3033 H          32.3654   19.1431    7.0520 H       1  UNL1        0.0000
   3034 H          31.8722    9.3961    9.5794 H       1  UNL1        0.0000
   3035 H          30.5931   10.4966   10.0368 H       1  UNL1        0.0000
   3036 C          33.5499   18.7466    4.7451 C.2     1  UNL1        0.0000
   3037 C          21.1809   16.8680    8.3994 C.3     1  UNL1        0.0000
   3038 C          28.8186   11.6597    8.5017 C.3     1  UNL1        0.0000
   3039 C          25.8132   23.8030    4.6127 C.3     1  UNL1        0.0000
   3040 C          34.4459   18.1422    5.7403 C.2     1  UNL1        0.0000
   3041 C          20.2490   17.4930    7.4223 C.ar    1  UNL1        0.0000
   3042 C          29.7588   11.0453    7.5545 C.ar    1  UNL1        0.0000
   3043 C          24.9234   24.4498    5.6125 C.ar    1  UNL1        0.0000
   3044 C          34.1972   18.2171    7.1467 C.3     1  UNL1        0.0000
   3045 C          20.4654   17.3730    6.0343 C.ar    1  UNL1        0.0000
   3046 C          30.8882   10.2850    8.0076 C.ar    1  UNL1        0.0000
   3047 C          23.8286   25.2228    5.1676 C.ar    1  UNL1        0.0000
   3048 C          25.1778   24.2791    6.9674 C.ar    1  UNL1        0.0000
   3049 C          29.5111   11.1775    6.1706 C.ar    1  UNL1        0.0000
   3050 C          35.5796   17.4433    5.2646 C.3     1  UNL1        0.0000
   3051 C          19.1488   18.1854    7.9210 C.ar    1  UNL1        0.0000
   3052 C          33.7617   15.6608    0.0582 C.2     1  UNL1        0.0000
   3053 C          27.2920   27.4524    0.0832 C.2     1  UNL1        0.0000
   3054 C          36.2461   21.4239   -0.0678 C.2     1  UNL1        0.0000
   3055 C          22.8878   22.9664   -0.0872 C.2     1  UNL1        0.0000
   3056 C          28.4960   19.4893    5.6180 C.3     1  UNL1        0.0000
   3057 C          23.7399   12.3950    7.5361 C.3     1  UNL1        0.0000
   3058 C          33.6258   17.1157    0.0350 C.2     1  UNL1        0.0000
   3059 C          27.1992   26.0189    0.0457 C.2     1  UNL1        0.0000
   3060 C          34.9483   20.8071   -0.0210 C.2     1  UNL1        0.0000
   3061 C          24.2901   23.3807   -0.0628 C.2     1  UNL1        0.0000
   3062 C          33.8010   14.9917    1.2879 C.3     1  UNL1        0.0000
   3063 C          22.6542   21.0921   11.9408 C.ar    1  UNL1        0.0000
   3064 C          36.9014   21.6987    1.1661 C.3     1  UNL1        0.0000
   3065 C          17.6200   15.6706   11.7793 C.ar    1  UNL1        0.0000
   3066 C          32.3058   14.6262   11.7938 C.3     1  UNL1        0.0000
   3067 C          22.1906   22.7359    1.1253 C.3     1  UNL1        0.0000
   3068 C          29.1435    7.8543   11.9429 C.ar    1  UNL1        0.0000
   3069 C          27.3057   28.2036    1.3125 C.3     1  UNL1        0.0000
   3070 N          27.3608   27.6047    2.5506 N.3     1  UNL1        0.0000
   3071 N          31.7267   14.4434   10.5548 N.3     1  UNL1        0.0000
   3072 N          33.1163   18.8634    7.6780 N.3     1  UNL1        0.0000
   3073 N          31.2193   10.1268    9.3250 N.pl3   1  UNL1        0.0000
   3074 O          32.3736   19.1516    5.1109 O.2     1  UNL1        0.0000
   3075 O          21.9499   15.9171    8.0011 O.3     1  UNL1        0.0000
   3076 O          29.2001   11.7842    9.7228 O.3     1  UNL1        0.0000
   3077 O          25.7473   24.2327    3.4131 O.3     1  UNL1        0.0000
   3078 O          26.5836   22.8458    4.9992 O.3     1  UNL1        0.0000
   3079 O          27.6482   12.0281    8.0962 O.3     1  UNL1        0.0000
   3080 O          33.9618   18.8273    3.5334 O.2     1  UNL1        0.0000
   3081 O          21.1388   17.3042    9.5991 O.3     1  UNL1        0.0000
   3082 O          31.2893   18.5724    2.5344 O.3     1  UNL1        0.0000
   3083 O          23.6431   16.4310   10.0994 O.3     1  UNL1        0.0000
   3084 O          32.2281   20.8597    2.9843 O.3     1  UNL1        0.0000
   3085 O          21.8909   14.7064   10.5921 O.3     1  UNL1        0.0000
   3086 O          26.4974   11.4984   10.6868 O.3     1  UNL1        0.0000
   3087 O          28.2658   23.3938    2.9149 O.3     1  UNL1        0.0000
   3088 O          27.4513   13.7599   10.2227 O.3     1  UNL1        0.0000
   3089 O          26.5596   21.6367    2.3975 O.3     1  UNL1        0.0000
   3090 O          29.7171   19.3095    5.2637 O.3     1  UNL1        0.0000
   3091 O          23.0822   13.4299    7.9143 O.3     1  UNL1        0.0000
   3092 O          28.8686   10.6442   11.9889 O.3     1  UNL1        0.0000
   3093 O          27.1161   25.3174    1.1409 O.2     1  UNL1        0.0000
   3094 O          29.6708   13.4324   11.9838 O.2     1  UNL1        0.0000
   3095 O          24.8802   23.4817    1.0808 O.2     1  UNL1        0.0000
   3096 O          24.9017   12.1004    7.9939 O.3     1  UNL1        0.0000
   3097 O          27.7542   20.4102    5.1246 O.3     1  UNL1        0.0000
   3098 O          34.4090   20.5069    1.1270 O.2     1  UNL1        0.0000
   3099 O          20.2546   16.5465   11.9148 O.3     1  UNL1        0.0000
   3100 O          33.6134   17.7526    1.1564 O.2     1  UNL1        0.0000
   3101 O          22.5228   18.3289   11.9961 O.3     1  UNL1        0.0000
   3102 O          29.4811   20.9639    3.0354 O.3     1  UNL1        0.0000
   3103 O          24.7791   13.9601   10.0165 O.3     1  UNL1        0.0000
   3104 O          31.9352   19.7388    0.1026 O.3     1  UNL1        0.0000
   3105 O          27.3675   22.8408   -0.0641 O.3     1  UNL1        0.0000
   3106 H          28.6372   15.6953    8.3310 H       1  UNL1        0.0000
   3107 H          24.8837   10.2702    6.3229 H       1  UNL1        0.0000
   3108 H          29.5738   24.9026    5.1167 H      30  UNL30       0.0000
   3109 H          29.6826   17.3487    6.7535 H       1  UNL1        0.0000
   3110 H          24.9550   17.9241    8.2267 H       1  UNL1        0.0000
   3111 H          21.2031   12.4767    6.6381 H       1  UNL1        0.0000
   3112 H          26.2816   15.9974    9.0395 H       1  UNL1        0.0000
   3113 H          25.9995   19.5704    6.6355 H       1  UNL1        0.0000
   3114 H          30.8866   23.0271    4.1589 H      30  UNL30       0.0000
   3115 H          17.2687   23.2775    4.6697 H       1  UNL1        0.0000
   3116 C          27.9011   18.5550    6.6081 C.ar    1  UNL1        0.0000
   3117 C          26.7385   16.7192    8.3638 C.ar    1  UNL1        0.0000
   3118 C          31.3628   23.7252    4.8466 C.2    30  UNL30       0.0000
   3119 C          23.1067   11.4673    6.5651 C.ar    1  UNL1        0.0000
   3120 C          26.5669   18.7260    7.0216 C.ar    1  UNL1        0.0000
   3121 C          28.0701   16.5492    7.9632 C.ar    1  UNL1        0.0000
   3122 C          30.6239   24.7887    5.3820 C.2    30  UNL30       0.0000
   3123 C          23.8417   10.3916    6.0335 C.ar    1  UNL1        0.0000
   3124 C          32.7114   23.5547    5.1834 C.3    30  UNL30       0.0000
   3125 C          21.7545   11.6400    6.2144 C.ar    1  UNL1        0.0000
   3126 C          28.6540   17.4670    7.0884 C.ar    1  UNL1        0.0000
   3127 C          25.9884   17.8088    7.9015 C.ar    1  UNL1        0.0000
   3128 H          25.0769   19.5288   12.5170 H      50  UNL50       0.0000
   3129 H          26.6283   18.1338   10.6621 H      50  UNL50       0.0000
   3130 C          25.8716   18.8064   12.6539 C.2    50  UNL50       0.0000
   3131 H          29.2532   17.8924   10.3864 H      50  UNL50       0.0000
   3132 C          26.6339   18.1230   11.7449 C.2    50  UNL50       0.0000
   3133 H          25.2203   19.8208   15.0434 H      50  UNL50       0.0000
   3134 N          26.2868   18.4134   13.9142 N.pl3  50  UNL50       0.0000
   3135 C          29.6594   17.3129   11.2252 C.3    50  UNL50       0.0000
   3136 H          30.1323   18.0008   11.9372 H      50  UNL50       0.0000
   3137 C          25.7076   18.8528   15.1910 C.3    50  UNL50       0.0000
   3138 N          27.5032   17.3223   12.4656 N.pl3  50  UNL50       0.0000
   3139 H          24.9665   18.1159   15.5268 H      50  UNL50       0.0000
   3140 H          30.4286   16.6341   10.8291 H      50  UNL50       0.0000
   3141 C          27.2756   17.5092   13.7793 C.3    50  UNL50       0.0000
   3142 C          28.5747   16.4775   11.8981 C.3    50  UNL50       0.0000
   3143 H          28.1101   15.7686   11.1998 H      50  UNL50       0.0000
   3144 H          26.5043   18.9482   15.9350 H      50  UNL50       0.0000
   3145 H          27.7961   17.0127   14.5895 H      50  UNL50       0.0000
   3146 H          28.9788   15.8953   12.7328 H      50  UNL50       0.0000
   3147 TI         17.8289    9.3674   24.3567 Ti      1  UNL1        0.0000
   3148 TI         28.6594   12.2486   14.9919 Ti      1  UNL1        0.0000
   3149 TI         21.9256    5.4312   22.5367 Ti      1  UNL1        0.0000
   3150 TI         23.4368   14.5933   16.7637 Ti      1  UNL1        0.0000
   3151 TI         22.4382   16.2716   14.8593 Ti      1  UNL1        0.0000
   3152 TI         23.8138    5.1768   24.4901 Ti      1  UNL1        0.0000
   3153 TI         18.7781    7.6315   22.4652 Ti      1  UNL1        0.0000
   3154 TI         26.6715   12.5511   16.8393 Ti      1  UNL1        0.0000
   3155 H          18.3308   13.2645   24.1372 H       1  UNL1        0.0000
   3156 H          29.4681    8.3425   15.3125 H       1  UNL1        0.0000
   3157 H          13.8690    8.6107   23.9742 H       1  UNL1        0.0000
   3158 H          32.0415   14.2529   15.1925 H       1  UNL1        0.0000
   3159 H          24.7894    1.1423   24.1041 H       1  UNL1        0.0000
   3160 H          18.3797   15.6817   15.1813 H       1  UNL1        0.0000
   3161 H          22.9326   14.6348   12.9862 H       1  UNL1        0.0000
   3162 H          26.7838   12.0059   13.2919 H       1  UNL1        0.0000
   3163 H          24.3237    4.5097   18.9790 H       1  UNL1        0.0000
   3164 H          21.7133   16.4303   20.3826 H       1  UNL1        0.0000
   3165 H          14.7055   11.0201   22.1093 H       1  UNL1        0.0000
   3166 H          31.4141   10.1643   17.2979 H       1  UNL1        0.0000
   3167 H          17.0066    9.5727   18.7754 H       1  UNL1        0.0000
   3168 H          19.3381   18.0995   17.2125 H       1  UNL1        0.0000
   3169 H          22.8304   19.3745   15.7147 H       1  UNL1        0.0000
   3170 H          29.3103    6.3237   16.5150 H       1  UNL1        0.0000
   3171 H          25.5294   14.2734   15.4250 H       1  UNL1        0.0000
   3172 H          20.8449    7.2796   23.8303 H       1  UNL1        0.0000
   3173 H          28.0485    7.1117   22.8797 H       1  UNL1        0.0000
   3174 H          26.5674    6.6426   23.6271 H       1  UNL1        0.0000
   3175 H          28.6226   11.5453   21.7808 H       1  UNL1        0.0000
   3176 H          28.0529   11.9039   20.1623 H       1  UNL1        0.0000
   3177 H          27.5597    2.1569   22.6897 H       1  UNL1        0.0000
   3178 H          26.2805    3.2574   23.1471 H       1  UNL1        0.0000
   3179 C          29.2374   11.5073   17.8554 C.2     1  UNL1        0.0000
   3180 C          16.8683    9.6288   21.5096 C.3     1  UNL1        0.0000
   3181 C          24.5061    4.4205   21.6120 C.3     1  UNL1        0.0000
   3182 C          21.5006   16.5638   17.7230 C.3     1  UNL1        0.0000
   3183 C          30.1334   10.9030   18.8506 C.2     1  UNL1        0.0000
   3184 C          15.9364   10.2538   20.5326 C.ar    1  UNL1        0.0000
   3185 C          25.4463    3.8061   20.6648 C.ar    1  UNL1        0.0000
   3186 C          20.6108   17.2106   18.7228 C.ar    1  UNL1        0.0000
   3187 C          29.8846   10.9779   20.2570 C.3     1  UNL1        0.0000
   3188 C          16.1528   10.1338   19.1446 C.ar    1  UNL1        0.0000
   3189 C          26.5757    3.0458   21.1178 C.ar    1  UNL1        0.0000
   3190 C          19.5161   17.9836   18.2779 C.ar    1  UNL1        0.0000
   3191 C          20.8653   17.0399   20.0777 C.ar    1  UNL1        0.0000
   3192 C          25.1986    3.9383   19.2809 C.ar    1  UNL1        0.0000
   3193 C          31.2671   10.2040   18.3749 C.3     1  UNL1        0.0000
   3194 C          14.8363   10.9462   21.0313 C.ar    1  UNL1        0.0000
   3195 C          29.4492    8.4216   13.1685 C.ar    1  UNL1        0.0000
   3196 C          22.9794   20.2132   13.1935 C.ar    1  UNL1        0.0000
   3197 C          31.9336   14.1847   13.0424 C.2     1  UNL1        0.0000
   3198 C          18.5753   15.7272   13.0231 C.ar    1  UNL1        0.0000
   3199 C          24.1835   12.2501   18.7283 C.3     1  UNL1        0.0000
   3200 C          19.4274    5.1558   20.6464 C.3     1  UNL1        0.0000
   3201 C          29.3133    9.8765   13.1453 C.3     1  UNL1        0.0000
   3202 C          22.8867   18.7797   13.1560 C.3     1  UNL1        0.0000
   3203 C          30.6358   13.5679   13.0893 C.2     1  UNL1        0.0000
   3204 C          19.9776   16.1415   13.0475 C.3     1  UNL1        0.0000
   3205 C          29.4885    7.7525   14.3981 C.ar    1  UNL1        0.0000
   3206 C          18.3417   13.8529   25.0511 C.ar    1  UNL1        0.0000
   3207 C          32.5889   14.4595   14.2764 C.3     1  UNL1        0.0000
   3208 C          13.3075    8.4314   24.8896 C.ar    1  UNL1        0.0000
   3209 C          27.9933    7.3870   24.9041 C.3     1  UNL1        0.0000
   3210 C          17.8781   15.4967   14.2355 C.ar    1  UNL1        0.0000
   3211 C          24.8310    0.6151   25.0532 C.ar    1  UNL1        0.0000
   3212 C          22.9932   20.9644   14.4227 C.ar    1  UNL1        0.0000
   3213 N          23.0483   20.3655   15.6609 N.pl3   1  UNL1        0.0000
   3214 N          27.4142    7.2042   23.6651 N.3     1  UNL1        0.0000
   3215 N          28.8038   11.6242   20.7883 N.3     1  UNL1        0.0000
   3216 N          26.9067    2.8876   22.4352 N.pl3   1  UNL1        0.0000
   3217 O          28.0611   11.9124   18.2212 O.2     1  UNL1        0.0000
   3218 O          17.6373    8.6779   21.1114 O.3     1  UNL1        0.0000
   3219 O          24.8875    4.5450   22.8331 O.3     1  UNL1        0.0000
   3220 O          21.4348   16.9935   16.5234 O.3     1  UNL1        0.0000
   3221 O          22.2711   15.6066   18.1095 O.3     1  UNL1        0.0000
   3222 O          23.3356    4.7889   21.2065 O.3     1  UNL1        0.0000
   3223 O          29.6493   11.5881   16.6436 O.2     1  UNL1        0.0000
   3224 O          16.8263   10.0650   22.7094 O.3     1  UNL1        0.0000
   3225 O          26.9768   11.3332   15.6446 O.3     1  UNL1        0.0000
   3226 O          19.3305    9.1918   23.2097 O.3     1  UNL1        0.0000
   3227 O          27.9155   13.6205   16.0946 O.3     1  UNL1        0.0000
   3228 O          17.5784    7.4672   23.7024 O.3     1  UNL1        0.0000
   3229 O          22.1849    4.2592   23.7971 O.3     1  UNL1        0.0000
   3230 O          23.9533   16.1546   16.0252 O.3     1  UNL1        0.0000
   3231 O          23.1388    6.5207   23.3329 O.3     1  UNL1        0.0000
   3232 O          22.2471   14.3975   15.5078 O.3     1  UNL1        0.0000
   3233 O          25.4046   12.0703   18.3740 O.3     1  UNL1        0.0000
   3234 O          18.7697    6.1907   21.0246 O.3     1  UNL1        0.0000
   3235 O          24.5561    3.4050   25.0992 O.3     1  UNL1        0.0000
   3236 O          22.8036   18.0782   14.2512 O.3     1  UNL1        0.0000
   3237 O          25.3582    6.1932   25.0940 O.2     1  UNL1        0.0000
   3238 O          20.5676   16.2425   14.1911 O.3     1  UNL1        0.0000
   3239 O          20.5892    4.8612   21.1042 O.3     1  UNL1        0.0000
   3240 O          23.4416   13.1710   18.2349 O.3     1  UNL1        0.0000
   3241 O          30.0964   13.2677   14.2373 O.2     1  UNL1        0.0000
   3242 O          15.9421    9.3073   25.0251 O.3     1  UNL1        0.0000
   3243 O          29.3009   10.5134   14.2667 O.3     1  UNL1        0.0000
   3244 O          18.2103   11.0897   25.1064 O.3     1  UNL1        0.0000
   3245 O          25.1685   13.7247   16.1457 O.3     1  UNL1        0.0000
   3246 O          20.4666    6.7209   23.1267 O.3     1  UNL1        0.0000
   3247 O          27.6227   12.4996   13.2129 O.3     1  UNL1        0.0000
   3248 O          23.0550   15.6016   13.0462 O.3     1  UNL1        0.0000
   3249 H          24.3247    8.4561   21.4413 H       1  UNL1        0.0000
   3250 H          20.5712    3.0310   19.4331 H       1  UNL1        0.0000
   3251 H          25.2613   17.6634   18.2269 H      31  UNL31       0.0000
   3252 H          25.3700   10.1094   19.8637 H       1  UNL1        0.0000
   3253 H          20.6425   10.6849   21.3370 H       1  UNL1        0.0000
   3254 H          16.8906    5.2375   19.7483 H       1  UNL1        0.0000
   3255 H          21.9691    8.7582   22.1497 H       1  UNL1        0.0000
   3256 H          21.6869   12.3312   19.7458 H       1  UNL1        0.0000
   3257 H          26.5740   15.7879   17.2691 H      31  UNL31       0.0000
   3258 H          12.9562   16.0383   17.7800 H       1  UNL1        0.0000
   3259 C          23.5886   11.3158   19.7184 C.ar    1  UNL1        0.0000
   3260 C          22.4259    9.4800   21.4741 C.ar    1  UNL1        0.0000
   3261 C          27.0502   16.4860   17.9569 C.2    31  UNL31       0.0000
   3262 C          18.7942    4.2281   19.6754 C.ar    1  UNL1        0.0000
   3263 C          22.2543   11.4867   20.1319 C.ar    1  UNL1        0.0000
   3264 C          23.7576    9.3100   21.0735 C.ar    1  UNL1        0.0000
   3265 C          26.3114   17.5495   18.4922 C.2    31  UNL31       0.0000
   3266 C          19.5292    3.1524   19.1438 C.ar    1  UNL1        0.0000
   3267 C          28.3989   16.3155   18.2937 C.3    31  UNL31       0.0000
   3268 C          17.4420    4.4008   19.3247 C.ar    1  UNL1        0.0000
   3269 C          24.3415   10.2278   20.1986 C.ar    1  UNL1        0.0000
   3270 C          21.6758   10.5696   21.0117 C.ar    1  UNL1        0.0000
   3271 H          20.7644   12.2896   25.6273 H      51  UNL51       0.0000
   3272 H          22.3157   10.8946   23.7724 H      51  UNL51       0.0000
   3273 C          21.5590   11.5672   25.7642 C.2    51  UNL51       0.0000
   3274 H          24.9407   10.6532   23.4967 H      51  UNL51       0.0000
   3275 C          22.3214   10.8838   24.8552 C.2    51  UNL51       0.0000
   3276 H          20.9078   12.5816   28.1536 H      51  UNL51       0.0000
   3277 N          21.9743   11.1742   27.0245 N.pl3  51  UNL51       0.0000
   3278 C          25.3469   10.0737   24.3354 C.3    51  UNL51       0.0000
   3279 H          25.8198   10.7616   25.0474 H      51  UNL51       0.0000
   3280 C          21.3951   11.6136   28.3013 C.3    51  UNL51       0.0000
   3281 N          23.1907   10.0831   25.5759 N.pl3  51  UNL51       0.0000
   3282 H          20.6540   10.8767   28.6371 H      51  UNL51       0.0000
   3283 H          26.1161    9.3949   23.9394 H      51  UNL51       0.0000
   3284 C          22.9631   10.2700   26.8896 C.3    51  UNL51       0.0000
   3285 C          24.2622    9.2383   25.0084 C.3    51  UNL51       0.0000
   3286 H          23.7975    8.5294   24.3101 H      51  UNL51       0.0000
   3287 H          22.1917   11.7090   29.0453 H      51  UNL51       0.0000
   3288 H          23.4836    9.7735   27.6998 H      51  UNL51       0.0000
   3289 H          24.6662    8.6561   25.8431 H      51  UNL51       0.0000
   3290 TI         13.5163    2.1282   37.4669 Ti      1  UNL1        0.0000
   3291 TI         24.3468    5.0094   28.1021 Ti      1  UNL1        0.0000
   3292 TI         17.6130   -1.8080   35.6470 Ti      1  UNL1        0.0000
   3293 TI         19.1242    7.3541   29.8739 Ti      1  UNL1        0.0000
   3294 TI         18.1256    9.0324   27.9695 Ti      1  UNL1        0.0000
   3295 TI         19.5012   -2.0624   37.6003 Ti      1  UNL1        0.0000
   3296 TI         14.4655    0.3923   35.5755 Ti      1  UNL1        0.0000
   3297 TI         22.3590    5.3119   29.9496 Ti      1  UNL1        0.0000
   3298 H          14.0182    6.0253   37.2475 H      32  UNL32       0.0000
   3299 H          25.1556    1.1033   28.4228 H       1  UNL1        0.0000
   3300 H           9.5564    1.3715   37.0845 H      18  UNL18       0.0000
   3301 H          27.7290    7.0137   28.3028 H       1  UNL1        0.0000
   3302 H          20.4768   -6.0969   37.2144 H      26  UNL26       0.0000
   3303 H          14.0671    8.4425   28.2916 H       1  UNL1        0.0000
   3304 H          18.6201    7.3956   26.0965 H       1  UNL1        0.0000
   3305 H          22.4713    4.7667   26.4022 H       1  UNL1        0.0000
   3306 H          20.0111   -2.7295   32.0892 H       1  UNL1        0.0000
   3307 H          17.4008    9.1911   33.4929 H       1  UNL1        0.0000
   3308 H          10.3929    3.7809   35.2196 H       1  UNL1        0.0000
   3309 H          27.1016    2.9251   30.4081 H       1  UNL1        0.0000
   3310 H          12.6940    2.3335   31.8857 H       1  UNL1        0.0000
   3311 H          15.0256   10.8603   30.3228 H       1  UNL1        0.0000
   3312 H          18.5179   12.1352   28.8250 H       1  UNL1        0.0000
   3313 H          24.9978   -0.9155   29.6253 H       1  UNL1        0.0000
   3314 H          21.2168    7.0342   28.5353 H       1  UNL1        0.0000
   3315 H          16.5323    0.0404   36.9406 H       1  UNL1        0.0000
   3316 H          23.7360   -0.1275   35.9900 H      33  UNL33       0.0000
   3317 H          22.2549   -0.5966   36.7373 H      33  UNL33       0.0000
   3318 H          24.3101    4.3061   34.8911 H       1  UNL1        0.0000
   3319 H          23.7404    4.6647   33.2726 H       1  UNL1        0.0000
   3320 H          23.2472   -5.0823   35.8000 H       1  UNL1        0.0000
   3321 H          21.9680   -3.9818   36.2574 H       1  UNL1        0.0000
   3322 C          24.9249    4.2681   30.9657 C.2     1  UNL1        0.0000
   3323 C          12.5558    2.3896   34.6199 C.3     1  UNL1        0.0000
   3324 C          20.1935   -2.8187   34.7222 C.3     1  UNL1        0.0000
   3325 C          17.1881    9.3246   30.8333 C.3     1  UNL1        0.0000
   3326 C          25.8209    3.6638   31.9609 C.2     1  UNL1        0.0000
   3327 C          11.6239    3.0146   33.6429 C.ar    1  UNL1        0.0000
   3328 C          21.1337   -3.4331   33.7751 C.ar    1  UNL1        0.0000
   3329 C          16.2983    9.9714   31.8331 C.ar    1  UNL1        0.0000
   3330 C          25.5721    3.7387   33.3673 C.3     1  UNL1        0.0000
   3331 C          11.8403    2.8946   32.2548 C.ar    1  UNL1        0.0000
   3332 C          22.2632   -4.1934   34.2281 C.ar    1  UNL1        0.0000
   3333 C          15.2036   10.7444   31.3882 C.ar    1  UNL1        0.0000
   3334 C          16.5528    9.8007   33.1880 C.ar    1  UNL1        0.0000
   3335 C          20.8860   -3.3009   32.3911 C.ar    1  UNL1        0.0000
   3336 C          26.9546    2.9648   31.4851 C.3     1  UNL1        0.0000
   3337 C          10.5237    3.7070   34.1415 C.ar    1  UNL1        0.0000
   3338 C          25.1366    1.1824   26.2787 C.ar    1  UNL1        0.0000
   3339 C          18.6669   12.9740   26.3037 C.ar    1  UNL1        0.0000
   3340 C          27.6211    6.9455   26.1527 C.2     1  UNL1        0.0000
   3341 C          14.2627    8.4880   26.1333 C.ar    1  UNL1        0.0000
   3342 C          19.8709    5.0109   31.8385 C.3     1  UNL1        0.0000
   3343 C          15.1149   -2.0834   33.7567 C.3     1  UNL1        0.0000
   3344 C          25.0008    2.6373   26.2555 C.3     1  UNL1        0.0000
   3345 C          18.5741   11.5405   26.2662 C.3     1  UNL1        0.0000
   3346 C          26.3232    6.3287   26.1996 C.2     1  UNL1        0.0000
   3347 C          15.6650    8.9023   26.1578 C.3     1  UNL1        0.0000
   3348 C          25.1760    0.5133   27.5084 C.ar    1  UNL1        0.0000
   3349 C          14.0291    6.6137   38.1614 C.3    32  UNL32       0.0000
   3350 C          28.2764    7.2203   27.3867 C.3     1  UNL1        0.0000
   3351 C           8.9950    1.1922   37.9999 C.3    18  UNL18       0.0000
   3352 C          23.6807    0.1478   38.0143 C.3    33  UNL33       0.0000
   3353 C          13.5655    8.2575   27.3458 C.ar    1  UNL1        0.0000
   3354 C          20.5185   -6.6241   38.1635 C.3    26  UNL26       0.0000
   3355 C          18.6807   13.7252   27.5330 C.ar    1  UNL1        0.0000
   3356 N          18.7357   13.1263   28.7712 N.pl3   1  UNL1        0.0000
   3357 N          23.1017   -0.0350   36.7754 N.3    33  UNL33       0.0000
   3358 N          24.4912    4.3850   33.8986 N.3     1  UNL1        0.0000
   3359 N          22.5942   -4.3516   35.5455 N.pl3   1  UNL1        0.0000
   3360 O          23.7485    4.6732   31.3315 O.2     1  UNL1        0.0000
   3361 O          13.3248    1.4387   34.2216 O.3     1  UNL1        0.0000
   3362 O          20.5750   -2.6943   35.9434 O.3     1  UNL1        0.0000
   3363 O          17.1222    9.7543   29.6337 O.3     1  UNL1        0.0000
   3364 O          17.9586    8.3674   31.2197 O.3     1  UNL1        0.0000
   3365 O          19.0231   -2.4503   34.3167 O.3     1  UNL1        0.0000
   3366 O          25.3367    4.3489   29.7539 O.2     1  UNL1        0.0000
   3367 O          12.5138    2.8258   35.8196 O.3     1  UNL1        0.0000
   3368 O          22.6642    4.0940   28.7549 O.3     1  UNL1        0.0000
   3369 O          15.0180    1.9526   36.3200 O.3     1  UNL1        0.0000
   3370 O          23.6030    6.3813   29.2049 O.3     1  UNL1        0.0000
   3371 O          13.2658    0.2280   36.8127 O.3     1  UNL1        0.0000
   3372 O          17.8723   -2.9800   36.9074 O.3     1  UNL1        0.0000
   3373 O          19.6408    8.9154   29.1355 O.3     1  UNL1        0.0000
   3374 O          18.8263   -0.7185   36.4432 O.3     1  UNL1        0.0000
   3375 O          17.9345    7.1583   28.6180 O.3     1  UNL1        0.0000
   3376 O          21.0921    4.8311   31.4843 O.3     1  UNL1        0.0000
   3377 O          14.4572   -1.0485   34.1349 O.3     1  UNL1        0.0000
   3378 O          20.2436   -3.8342   38.2094 O.3     1  UNL1        0.0000
   3379 O          18.4910   10.8390   27.3614 O.3     1  UNL1        0.0000
   3380 O          21.0457   -1.0460   38.2043 O.3     1  UNL1        0.0000
   3381 O          16.2551    9.0033   27.3014 O.3     1  UNL1        0.0000
   3382 O          16.2767   -2.3780   34.2145 O.3     1  UNL1        0.0000
   3383 O          19.1291    5.9318   31.3452 O.3     1  UNL1        0.0000
   3384 O          25.7839    6.0285   27.3476 O.2     1  UNL1        0.0000
   3385 O          11.6296    2.0681   38.1354 O.3     1  UNL1        0.0000
   3386 O          24.9883    3.2742   27.3770 O.3     1  UNL1        0.0000
   3387 O          13.8978    3.8505   38.2167 O.3     1  UNL1        0.0000
   3388 O          20.8560    6.4855   29.2560 O.3     1  UNL1        0.0000
   3389 O          16.1541   -0.5183   36.2370 O.3     1  UNL1        0.0000
   3390 O          23.3101    5.2604   26.3232 O.3     1  UNL1        0.0000
   3391 O          18.7425    8.3624   26.1564 O.3     1  UNL1        0.0000
   3392 H          20.0121    1.2169   34.5516 H       1  UNL1        0.0000
   3393 H          16.2587   -4.2082   32.5434 H       1  UNL1        0.0000
   3394 H          20.9487   10.4242   31.3372 H      34  UNL34       0.0000
   3395 H          21.0575    2.8702   32.9740 H       1  UNL1        0.0000
   3396 H          16.3299    3.4457   34.4472 H       1  UNL1        0.0000
   3397 H          12.5781   -2.0017   32.8586 H       1  UNL1        0.0000
   3398 H          17.6565    1.5190   35.2600 H       1  UNL1        0.0000
   3399 H          17.3744    5.0920   32.8560 H       1  UNL1        0.0000
   3400 H          22.2615    8.5487   30.3794 H      34  UNL34       0.0000
   3401 H           8.6436    8.7991   30.8903 H       1  UNL1        0.0000
   3402 C          19.2760    4.0766   32.8287 C.ar    1  UNL1        0.0000
   3403 C          18.1134    2.2408   34.5844 C.ar    1  UNL1        0.0000
   3404 C          22.7377    9.2468   31.0672 C.2    34  UNL34       0.0000
   3405 C          14.4817   -3.0111   32.7857 C.ar    1  UNL1        0.0000
   3406 C          17.9418    4.2475   33.2422 C.ar    1  UNL1        0.0000
   3407 C          19.4451    2.0708   34.1838 C.ar    1  UNL1        0.0000
   3408 C          21.9989   10.3103   31.6025 C.2    34  UNL34       0.0000
   3409 C          15.2166   -4.0868   32.2540 C.ar    1  UNL1        0.0000
   3410 C          24.0864    9.0763   31.4039 C.3    34  UNL34       0.0000
   3411 C          13.1294   -2.8384   32.4349 C.ar    1  UNL1        0.0000
   3412 C          20.0290    2.9886   33.3089 C.ar    1  UNL1        0.0000
   3413 C          17.3633    3.3304   34.1220 C.ar    1  UNL1        0.0000
   3414 H          16.4519    5.0504   38.7376 H      52  UNL52       0.0000
   3415 H          18.0032    3.6554   36.8827 H      52  UNL52       0.0000
   3416 C          17.2465    4.3280   38.8745 C.2    52  UNL52       0.0000
   3417 H          20.6282    3.4140   36.6070 H      52  UNL52       0.0000
   3418 C          18.0088    3.6446   37.9655 C.2    52  UNL52       0.0000
   3419 H          16.5953    5.3424   41.2639 H      52  UNL52       0.0000
   3420 N          17.6618    3.9350   40.1347 N.pl3  52  UNL52       0.0000
   3421 C          21.0344    2.8345   37.4457 C.3    52  UNL52       0.0000
   3422 H          21.5073    3.5224   38.1577 H      52  UNL52       0.0000
   3423 C          17.0825    4.3744   41.4116 C.3    52  UNL52       0.0000
   3424 N          18.8781    2.8439   38.6862 N.pl3  52  UNL52       0.0000
   3425 H          16.3415    3.6375   41.7474 H      52  UNL52       0.0000
   3426 H          21.8036    2.1557   37.0497 H      52  UNL52       0.0000
   3427 C          18.6506    3.0308   39.9998 C.3    52  UNL52       0.0000
   3428 C          19.9497    1.9991   38.1186 C.3    52  UNL52       0.0000
   3429 H          19.4850    1.2902   37.4204 H      52  UNL52       0.0000
   3430 H          17.8792    4.4698   42.1555 H      52  UNL52       0.0000
   3431 H          19.1710    2.5343   40.8101 H      52  UNL52       0.0000
   3432 H          20.3537    1.4169   38.9534 H      52  UNL52       0.0000
   3433 TI         15.1195   30.9834   11.2464 Ti      1  UNL1        0.0000
   3434 TI         25.9499   33.8646    1.8816 Ti      1  UNL1        0.0000
   3435 TI         19.2162   27.0472    9.4264 Ti      1  UNL1        0.0000
   3436 TI         20.7274   36.2093    3.6534 Ti      1  UNL1        0.0000
   3437 TI         19.7288   37.8876    1.7490 Ti      1  UNL1        0.0000
   3438 TI         21.1044   26.7928   11.3798 Ti      1  UNL1        0.0000
   3439 TI         16.0687   29.2475    9.3549 Ti      1  UNL1        0.0000
   3440 TI         23.9621   34.1672    3.7291 Ti      1  UNL1        0.0000
   3441 H          15.6213   34.8805   11.0269 H       1  UNL1        0.0000
   3442 H          26.7587   29.9585    2.2023 H       1  UNL1        0.0000
   3443 H          11.1596   30.2268   10.8639 H       1  UNL1        0.0000
   3444 H          29.3321   35.8689    2.0822 H       1  UNL1        0.0000
   3445 H          22.0800   22.7583   10.9939 H       1  UNL1        0.0000
   3446 H          15.6703   37.2977    2.0711 H       1  UNL1        0.0000
   3447 H          20.2232   36.2508   -0.1241 H       1  UNL1        0.0000
   3448 H          24.0744   33.6219    0.1817 H       1  UNL1        0.0000
   3449 H          21.6143   26.1257    5.8687 H       1  UNL1        0.0000
   3450 H          19.0039   38.0463    7.2723 H       1  UNL1        0.0000
   3451 H          11.9961   32.6361    8.9990 H       1  UNL1        0.0000
   3452 H          28.7047   31.7803    4.1876 H       1  UNL1        0.0000
   3453 H          14.2972   31.1887    5.6652 H       1  UNL1        0.0000
   3454 H          16.6287   39.7155    4.1022 H       1  UNL1        0.0000
   3455 H          20.1210   40.9905    2.6045 H       1  UNL1        0.0000
   3456 H          26.6009   27.9397    3.4048 H       1  UNL1        0.0000
   3457 H          22.8200   35.8895    2.3148 H       1  UNL1        0.0000
   3458 H          18.1355   28.8956   10.7200 H       1  UNL1        0.0000
   3459 H          25.3391   28.7277    9.7694 H       1  UNL1        0.0000
   3460 H          23.8580   28.2586   10.5168 H       1  UNL1        0.0000
   3461 H          25.9132   33.1613    8.6705 H       1  UNL1        0.0000
   3462 H          25.3435   33.5199    7.0520 H       1  UNL1        0.0000
   3463 H          24.8503   23.7729    9.5794 H       1  UNL1        0.0000
   3464 H          23.5711   24.8734   10.0368 H       1  UNL1        0.0000
   3465 C          26.5280   33.1234    4.7451 C.2     1  UNL1        0.0000
   3466 C          14.1589   31.2448    8.3994 C.3     1  UNL1        0.0000
   3467 C          21.7967   26.0365    8.5017 C.3     1  UNL1        0.0000
   3468 C          18.7912   38.1798    4.6127 C.3     1  UNL1        0.0000
   3469 C          27.4240   32.5190    5.7403 C.2     1  UNL1        0.0000
   3470 C          13.2270   31.8698    7.4223 C.ar    1  UNL1        0.0000
   3471 C          22.7369   25.4221    7.5545 C.ar    1  UNL1        0.0000
   3472 C          17.9014   38.8266    5.6125 C.2     1  UNL1        0.0000
   3473 C          27.1752   32.5940    7.1467 C.3     1  UNL1        0.0000
   3474 C          13.4434   31.7498    6.0343 C.ar    1  UNL1        0.0000
   3475 C          23.8663   24.6618    8.0076 C.ar    1  UNL1        0.0000
   3476 C          16.8067   39.5996    5.1676 C.3     1  UNL1        0.0000
   3477 C          18.1559   38.6559    6.9674 C.2     1  UNL1        0.0000
   3478 C          22.4892   25.5543    6.1706 C.ar    1  UNL1        0.0000
   3479 C          28.5577   31.8201    5.2646 C.3     1  UNL1        0.0000
   3480 C          12.1269   32.5622    7.9210 C.ar    1  UNL1        0.0000
   3481 C          26.7398   30.0376    0.0582 C.2     1  UNL1        0.0000
   3482 C          20.2700   41.8292    0.0832 C.2     1  UNL1        0.0000
   3483 C          29.2242   35.8007   -0.0678 C.2     1  UNL1        0.0000
   3484 C          15.8659   37.3432   -0.0872 C.2     1  UNL1        0.0000
   3485 C          21.4741   33.8661    5.6180 C.3     1  UNL1        0.0000
   3486 C          16.7180   26.7718    7.5361 C.3     1  UNL1        0.0000
   3487 C          26.6039   31.4925    0.0350 C.2     1  UNL1        0.0000
   3488 C          20.1773   40.3957    0.0457 C.2     1  UNL1        0.0000
   3489 C          27.9264   35.1839   -0.0210 C.2     1  UNL1        0.0000
   3490 C          17.2682   37.7575   -0.0628 C.2     1  UNL1        0.0000
   3491 C          26.7791   29.3685    1.2879 C.3     1  UNL1        0.0000
   3492 C          15.6323   35.4689   11.9408 C.3     1  UNL1        0.0000
   3493 C          29.8795   36.0755    1.1661 C.3     1  UNL1        0.0000
   3494 C          10.5981   30.0474   11.7793 C.ar    1  UNL1        0.0000
   3495 C          25.2838   29.0030   11.7938 C.3     1  UNL1        0.0000
   3496 C          15.1687   37.1127    1.1253 C.3     1  UNL1        0.0000
   3497 C          22.1216   22.2311   11.9429 C.ar    1  UNL1        0.0000
   3498 C          20.2838   42.5804    1.3125 C.3     1  UNL1        0.0000
   3499 N          20.3389   41.9816    2.5506 N.3     1  UNL1        0.0000
   3500 N          24.7048   28.8202   10.5548 N.3     1  UNL1        0.0000
   3501 N          26.0944   33.2402    7.6780 N.3     1  UNL1        0.0000
   3502 N          24.1973   24.5036    9.3250 N.pl3   1  UNL1        0.0000
   3503 O          25.3517   33.5285    5.1109 O.2     1  UNL1        0.0000
   3504 O          14.9279   30.2939    8.0011 O.3     1  UNL1        0.0000
   3505 O          22.1781   26.1610    9.7228 O.3     1  UNL1        0.0000
   3506 O          18.7254   38.6095    3.4131 O.3     1  UNL1        0.0000
   3507 O          19.5617   37.2226    4.9992 O.3     1  UNL1        0.0000
   3508 O          20.6262   26.4049    8.0962 O.3     1  UNL1        0.0000
   3509 O          26.9399   33.2041    3.5334 O.2     1  UNL1        0.0000
   3510 O          14.1169   31.6810    9.5991 O.3     1  UNL1        0.0000
   3511 O          24.2674   32.9492    2.5344 O.3     1  UNL1        0.0000
   3512 O          16.6211   30.8079   10.0994 O.3     1  UNL1        0.0000
   3513 O          25.2061   35.2365    2.9843 O.3     1  UNL1        0.0000
   3514 O          14.8690   29.0832   10.5921 O.3     1  UNL1        0.0000
   3515 O          19.4755   25.8752   10.6868 O.3     1  UNL1        0.0000
   3516 O          21.2439   37.7706    2.9149 O.3     1  UNL1        0.0000
   3517 O          20.4294   28.1367   10.2227 O.3     1  UNL1        0.0000
   3518 O          19.5377   36.0135    2.3975 O.3     1  UNL1        0.0000
   3519 O          22.6952   33.6863    5.2637 O.3     1  UNL1        0.0000
   3520 O          16.0603   27.8067    7.9143 O.3     1  UNL1        0.0000
   3521 O          21.8467   25.0210   11.9889 O.3     1  UNL1        0.0000
   3522 O          20.0942   39.6942    1.1409 O.2     1  UNL1        0.0000
   3523 O          22.6488   27.8092   11.9838 O.2     1  UNL1        0.0000
   3524 O          17.8582   37.8585    1.0808 O.2     1  UNL1        0.0000
   3525 O          17.8798   26.4772    7.9939 O.3     1  UNL1        0.0000
   3526 O          20.7322   34.7870    5.1246 O.3     1  UNL1        0.0000
   3527 O          27.3870   34.8837    1.1270 O.2     1  UNL1        0.0000
   3528 O          13.2327   30.9233   11.9148 O.3     1  UNL1        0.0000
   3529 O          26.5915   32.1294    1.1564 O.2     1  UNL1        0.0000
   3530 O          15.5009   32.7057   11.9961 O.2     1  UNL1        0.0000
   3531 O          22.4591   35.3407    3.0354 O.3     1  UNL1        0.0000
   3532 O          17.7572   28.3369   10.0165 O.3     1  UNL1        0.0000
   3533 O          24.9133   34.1156    0.1026 O.3     1  UNL1        0.0000
   3534 O          20.3456   37.2176   -0.0641 O.3     1  UNL1        0.0000
   3535 H          21.6153   30.0721    8.3310 H       1  UNL1        0.0000
   3536 H          17.8618   24.6470    6.3229 H       1  UNL1        0.0000
   3537 H          22.5519   39.2794    5.1167 H      35  UNL35       0.0000
   3538 H          22.6606   31.7255    6.7535 H       1  UNL1        0.0000
   3539 H          17.9331   32.3009    8.2267 H       1  UNL1        0.0000
   3540 H          14.1812   26.8535    6.6381 H       1  UNL1        0.0000
   3541 H          19.2597   30.3742    9.0395 H       1  UNL1        0.0000
   3542 H          18.9775   33.9472    6.6355 H       1  UNL1        0.0000
   3543 H          23.8646   37.4039    4.1589 H      35  UNL35       0.0000
   3544 H          10.2468   37.6543    4.6697 H      19  UNL19       0.0000
   3545 C          20.8792   32.9318    6.6081 C.ar    1  UNL1        0.0000
   3546 C          19.7165   31.0961    8.3638 C.ar    1  UNL1        0.0000
   3547 C          24.3408   38.1020    4.8466 C.2    35  UNL35       0.0000
   3548 C          16.0848   25.8441    6.5651 C.ar    1  UNL1        0.0000
   3549 C          19.5449   33.1028    7.0216 C.ar    1  UNL1        0.0000
   3550 C          21.0482   30.9260    7.9632 C.ar    1  UNL1        0.0000
   3551 C          23.6020   39.1655    5.3820 C.2    35  UNL35       0.0000
   3552 C          16.8198   24.7684    6.0335 C.ar    1  UNL1        0.0000
   3553 C          25.6895   37.9315    5.1834 C.3    35  UNL35       0.0000
   3554 C          14.7326   26.0168    6.2144 C.ar    1  UNL1        0.0000
   3555 C          21.6321   31.8438    7.0884 C.ar    1  UNL1        0.0000
   3556 C          18.9664   32.1856    7.9015 C.ar    1  UNL1        0.0000
   3557 H          18.0550   33.9056   12.5170 H      53  UNL53       0.0000
   3558 H          19.6063   32.5106   10.6621 H      53  UNL53       0.0000
   3559 C          18.8496   33.1832   12.6539 C.2    53  UNL53       0.0000
   3560 H          22.2313   32.2693   10.3864 H      53  UNL53       0.0000
   3561 C          19.6120   32.4998   11.7449 C.2    53  UNL53       0.0000
   3562 H          18.1984   34.1976   15.0434 H      53  UNL53       0.0000
   3563 N          19.2649   32.7902   13.9142 N.pl3  53  UNL53       0.0000
   3564 C          22.6375   31.6897   11.2252 C.3    53  UNL53       0.0000
   3565 H          23.1104   32.3776   11.9372 H      53  UNL53       0.0000
   3566 C          18.6857   33.2296   15.1910 C.3    53  UNL53       0.0000
   3567 N          20.4813   31.6991   12.4656 N.pl3  53  UNL53       0.0000
   3568 H          17.9446   32.4927   15.5268 H      53  UNL53       0.0000
   3569 H          23.4067   31.0109   10.8291 H      53  UNL53       0.0000
   3570 C          20.2537   31.8860   13.7793 C.3    53  UNL53       0.0000
   3571 C          21.5528   30.8543   11.8981 C.3    53  UNL53       0.0000
   3572 H          21.0881   30.1455   11.1998 H      53  UNL53       0.0000
   3573 H          19.4823   33.3251   15.9350 H      53  UNL53       0.0000
   3574 H          20.7742   31.3895   14.5895 H      53  UNL53       0.0000
   3575 H          21.9568   30.2721   12.7328 H      53  UNL53       0.0000
   3576 TI         10.8069   23.7442   24.3567 Ti      1  UNL1        0.0000
   3577 TI         21.6374   26.6254   14.9919 Ti      1  UNL1        0.0000
   3578 TI         14.9036   19.8080   22.5367 Ti      1  UNL1        0.0000
   3579 TI         16.4148   28.9701   16.7637 Ti      1  UNL1        0.0000
   3580 TI         15.4162   30.6484   14.8593 Ti      1  UNL1        0.0000
   3581 TI         16.7918   19.5536   24.4901 Ti      1  UNL1        0.0000
   3582 TI         11.7561   22.0083   22.4652 Ti      1  UNL1        0.0000
   3583 TI         19.6496   26.9280   16.8393 Ti      1  UNL1        0.0000
   3584 H          11.3088   27.6413   24.1372 H       1  UNL1        0.0000
   3585 H          22.4462   22.7193   15.3125 H       1  UNL1        0.0000
   3586 H           6.8470   22.9876   23.9742 H       1  UNL1        0.0000
   3587 H          25.0196   28.6297   15.1925 H       1  UNL1        0.0000
   3588 H          17.7674   15.5191   24.1041 H       1  UNL1        0.0000
   3589 H          11.3577   30.0585   15.1813 H       1  UNL1        0.0000
   3590 H          15.9107   29.0116   12.9862 H       1  UNL1        0.0000
   3591 H          19.7619   26.3827   13.2919 H       1  UNL1        0.0000
   3592 H          17.3017   18.8865   18.9790 H       1  UNL1        0.0000
   3593 H          14.6914   30.8071   20.3826 H       1  UNL1        0.0000
   3594 H           7.6835   25.3969   22.1093 H       1  UNL1        0.0000
   3595 H          24.3922   24.5411   17.2979 H       1  UNL1        0.0000
   3596 H           9.9846   23.9495   18.7754 H       1  UNL1        0.0000
   3597 H          12.3162   32.4763   17.2125 H       1  UNL1        0.0000
   3598 H          15.8085   33.7513   15.7147 H       1  UNL1        0.0000
   3599 H          22.2884   20.7005   16.5150 H       1  UNL1        0.0000
   3600 H          18.5074   28.6502   15.4250 H       1  UNL1        0.0000
   3601 H          13.8229   21.6564   23.8303 H       1  UNL1        0.0000
   3602 H          21.0266   21.4885   22.8797 H       1  UNL1        0.0000
   3603 H          19.5454   21.0194   23.6271 H       1  UNL1        0.0000
   3604 H          21.6007   25.9221   21.7808 H       1  UNL1        0.0000
   3605 H          21.0310   26.2807   20.1623 H       1  UNL1        0.0000
   3606 H          20.5378   16.5337   22.6897 H       1  UNL1        0.0000
   3607 H          19.2586   17.6342   23.1471 H       1  UNL1        0.0000
   3608 C          22.2155   25.8842   17.8554 C.2     1  UNL1        0.0000
   3609 C           9.8464   24.0056   21.5096 C.3     1  UNL1        0.0000
   3610 C          17.4841   18.7973   21.6120 C.3     1  UNL1        0.0000
   3611 C          14.4787   30.9406   17.7230 C.3     1  UNL1        0.0000
   3612 C          23.1115   25.2798   18.8506 C.2     1  UNL1        0.0000
   3613 C           8.9145   24.6306   20.5326 C.ar    1  UNL1        0.0000
   3614 C          18.4243   18.1829   20.6648 C.ar    1  UNL1        0.0000
   3615 C          13.5889   31.5874   18.7228 C.2     1  UNL1        0.0000
   3616 C          22.8627   25.3548   20.2570 C.3     1  UNL1        0.0000
   3617 C           9.1309   24.5106   19.1446 C.ar    1  UNL1        0.0000
   3618 C          19.5538   17.4226   21.1178 C.ar    1  UNL1        0.0000
   3619 C          12.4942   32.3604   18.2779 C.3     1  UNL1        0.0000
   3620 C          13.8434   31.4167   20.0777 C.2     1  UNL1        0.0000
   3621 C          18.1766   18.3151   19.2809 C.ar    1  UNL1        0.0000
   3622 C          24.2452   24.5809   18.3749 C.3     1  UNL1        0.0000
   3623 C           7.8143   25.3230   21.0313 C.ar    1  UNL1        0.0000
   3624 C          22.4272   22.7984   13.1685 C.ar    1  UNL1        0.0000
   3625 C          15.9575   34.5900   13.1935 C.2     1  UNL1        0.0000
   3626 C          24.9117   28.5615   13.0424 C.2     1  UNL1        0.0000
   3627 C          11.5533   30.1040   13.0231 C.ar    1  UNL1        0.0000
   3628 C          17.1615   26.6269   18.7283 C.3     1  UNL1        0.0000
   3629 C          12.4054   19.5326   20.6464 C.3     1  UNL1        0.0000
   3630 C          22.2914   24.2533   13.1453 C.3     1  UNL1        0.0000
   3631 C          15.8647   33.1565   13.1560 C.2     1  UNL1        0.0000
   3632 C          23.6138   27.9447   13.0893 C.2     1  UNL1        0.0000
   3633 C          12.9556   30.5183   13.0475 C.3     1  UNL1        0.0000
   3634 C          22.4666   22.1293   14.3981 C.ar    1  UNL1        0.0000
   3635 C          11.3197   28.2297   25.0511 C.3     1  UNL1        0.0000
   3636 C          25.5670   28.8363   14.2764 C.3     1  UNL1        0.0000
   3637 C           6.2856   22.8082   24.8896 C.ar    1  UNL1        0.0000
   3638 C          20.9713   21.7638   24.9041 C.3     1  UNL1        0.0000
   3639 C          10.8561   29.8735   14.2355 C.ar    1  UNL1        0.0000
   3640 C          17.8091   14.9919   25.0532 C.ar    1  UNL1        0.0000
   3641 C          15.9713   35.3412   14.4227 C.3     1  UNL1        0.0000
   3642 N          16.0263   34.7424   15.6609 N.3     1  UNL1        0.0000
   3643 N          20.3923   21.5810   23.6651 N.3     1  UNL1        0.0000
   3644 N          21.7818   26.0010   20.7883 N.3     1  UNL1        0.0000
   3645 N          19.8848   17.2644   22.4352 N.pl3   1  UNL1        0.0000
   3646 O          21.0391   26.2893   18.2212 O.2     1  UNL1        0.0000
   3647 O          10.6154   23.0547   21.1114 O.3     1  UNL1        0.0000
   3648 O          17.8656   18.9218   22.8331 O.3     1  UNL1        0.0000
   3649 O          14.4128   31.3703   16.5234 O.3     1  UNL1        0.0000
   3650 O          15.2492   29.9834   18.1095 O.3     1  UNL1        0.0000
   3651 O          16.3137   19.1657   21.2065 O.3     1  UNL1        0.0000
   3652 O          22.6273   25.9649   16.6436 O.2     1  UNL1        0.0000
   3653 O           9.8044   24.4418   22.7094 O.3     1  UNL1        0.0000
   3654 O          19.9548   25.7100   15.6446 O.3     1  UNL1        0.0000
   3655 O          12.3086   23.5687   23.2097 O.3     1  UNL1        0.0000
   3656 O          20.8936   27.9973   16.0946 O.3     1  UNL1        0.0000
   3657 O          10.5564   21.8440   23.7024 O.3     1  UNL1        0.0000
   3658 O          15.1629   18.6360   23.7971 O.3     1  UNL1        0.0000
   3659 O          16.9314   30.5314   16.0252 O.3     1  UNL1        0.0000
   3660 O          16.1169   20.8975   23.3329 O.3     1  UNL1        0.0000
   3661 O          15.2251   28.7743   15.5078 O.3     1  UNL1        0.0000
   3662 O          18.3827   26.4471   18.3740 O.3     1  UNL1        0.0000
   3663 O          11.7478   20.5675   21.0246 O.3     1  UNL1        0.0000
   3664 O          17.5342   17.7818   25.0992 O.3     1  UNL1        0.0000
   3665 O          15.7816   32.4550   14.2512 O.2     1  UNL1        0.0000
   3666 O          18.3363   20.5700   25.0940 O.2     1  UNL1        0.0000
   3667 O          13.5457   30.6193   14.1911 O.3     1  UNL1        0.0000
   3668 O          13.5673   19.2380   21.1042 O.3     1  UNL1        0.0000
   3669 O          16.4197   27.5478   18.2349 O.3     1  UNL1        0.0000
   3670 O          23.0745   27.6445   14.2373 O.2     1  UNL1        0.0000
   3671 O           8.9202   23.6841   25.0251 O.3     1  UNL1        0.0000
   3672 O          22.2789   24.8902   14.2667 O.3     1  UNL1        0.0000
   3673 O          11.1884   25.4665   25.1064 O.2     1  UNL1        0.0000
   3674 O          18.1466   28.1015   16.1457 O.3     1  UNL1        0.0000
   3675 O          13.4447   21.0977   23.1267 O.3     1  UNL1        0.0000
   3676 O          20.6007   26.8764   13.2129 O.3     1  UNL1        0.0000
   3677 O          16.0331   29.9784   13.0462 O.3     1  UNL1        0.0000
   3678 H          17.3027   22.8329   21.4413 H       1  UNL1        0.0000
   3679 H          13.5493   17.4078   19.4331 H       1  UNL1        0.0000
   3680 H          18.2393   32.0402   18.2269 H      54  UNL54       0.0000
   3681 H          18.3481   24.4863   19.8637 H       1  UNL1        0.0000
   3682 H          13.6205   25.0617   21.3370 H       1  UNL1        0.0000
   3683 H           9.8686   19.6143   19.7483 H       1  UNL1        0.0000
   3684 H          14.9471   23.1350   22.1497 H       1  UNL1        0.0000
   3685 H          14.6650   26.7080   19.7458 H       1  UNL1        0.0000
   3686 H          19.5521   30.1647   17.2691 H      54  UNL54       0.0000
   3687 H           5.9342   30.4151   17.7800 H      20  UNL20       0.0000
   3688 C          16.5666   25.6926   19.7184 C.ar    1  UNL1        0.0000
   3689 C          15.4040   23.8569   21.4741 C.ar    1  UNL1        0.0000
   3690 C          20.0283   30.8628   17.9569 C.2    54  UNL54       0.0000
   3691 C          11.7723   18.6049   19.6754 C.ar    1  UNL1        0.0000
   3692 C          15.2324   25.8636   20.1319 C.ar    1  UNL1        0.0000
   3693 C          16.7357   23.6868   21.0735 C.ar    1  UNL1        0.0000
   3694 C          19.2895   31.9263   18.4922 C.2    54  UNL54       0.0000
   3695 C          12.5072   17.5292   19.1438 C.ar    1  UNL1        0.0000
   3696 C          21.3770   30.6923   18.2937 C.3    54  UNL54       0.0000
   3697 C          10.4200   18.7776   19.3247 C.ar    1  UNL1        0.0000
   3698 C          17.3196   24.6046   20.1986 C.ar    1  UNL1        0.0000
   3699 C          14.6539   24.9464   21.0117 C.ar    1  UNL1        0.0000
   3700 H          13.7425   26.6664   25.6273 H      54  UNL54       0.0000
   3701 H          15.2938   25.2714   23.7724 H      54  UNL54       0.0000
   3702 C          14.5371   25.9440   25.7642 C.2    54  UNL54       0.0000
   3703 H          17.9188   25.0301   23.4967 H      54  UNL54       0.0000
   3704 C          15.2994   25.2606   24.8552 C.2    54  UNL54       0.0000
   3705 H          13.8858   26.9584   28.1536 H      54  UNL54       0.0000
   3706 N          14.9524   25.5510   27.0245 N.pl3  54  UNL54       0.0000
   3707 C          18.3250   24.4505   24.3354 C.3    54  UNL54       0.0000
   3708 H          18.7979   25.1384   25.0474 H      54  UNL54       0.0000
   3709 C          14.3731   25.9904   28.3013 C.3    54  UNL54       0.0000
   3710 N          16.1687   24.4599   25.5759 N.pl3  54  UNL54       0.0000
   3711 H          13.6321   25.2535   28.6371 H      54  UNL54       0.0000
   3712 H          19.0941   23.7717   23.9394 H      54  UNL54       0.0000
   3713 C          15.9412   24.6468   26.8896 C.3    54  UNL54       0.0000
   3714 C          17.2403   23.6151   25.0084 C.3    54  UNL54       0.0000
   3715 H          16.7756   22.9063   24.3101 H      54  UNL54       0.0000
   3716 H          15.1698   26.0859   29.0453 H      54  UNL54       0.0000
   3717 H          16.4616   24.1503   27.6998 H      54  UNL54       0.0000
   3718 H          17.6443   23.0329   25.8431 H      54  UNL54       0.0000
   3719 TI          6.4944   16.5050   37.4669 Ti      1  UNL1        0.0000
   3720 TI         17.3249   19.3862   28.1021 Ti      1  UNL1        0.0000
   3721 TI         10.5911   12.5688   35.6470 Ti      1  UNL1        0.0000
   3722 TI         12.1023   21.7309   29.8739 Ti      1  UNL1        0.0000
   3723 TI         11.1037   23.4092   27.9695 Ti      1  UNL1        0.0000
   3724 TI         12.4793   12.3144   37.6003 Ti      1  UNL1        0.0000
   3725 TI          7.4436   14.7691   35.5755 Ti      1  UNL1        0.0000
   3726 TI         15.3371   19.6887   29.9496 Ti      1  UNL1        0.0000
   3727 H           6.9963   20.4021   37.2475 H      54  UNL54       0.0000
   3728 H          18.1337   15.4801   28.4228 H       1  UNL1        0.0000
   3729 H           2.5345   15.7484   37.0845 H      22  UNL22       0.0000
   3730 H          20.7070   21.3905   28.3028 H       1  UNL1        0.0000
   3731 H          13.4549    8.2799   37.2144 H      32  UNL32       0.0000
   3732 H           7.0452   22.8193   28.2916 H       1  UNL1        0.0000
   3733 H          11.5982   21.7724   26.0965 H       1  UNL1        0.0000
   3734 H          15.4494   19.1435   26.4022 H       1  UNL1        0.0000
   3735 H          12.9892   11.6473   32.0892 H       1  UNL1        0.0000
   3736 H          10.3788   23.5679   33.4929 H       1  UNL1        0.0000
   3737 H           3.3710   18.1577   35.2196 H       1  UNL1        0.0000
   3738 H          20.0796   17.3019   30.4081 H       1  UNL1        0.0000
   3739 H           5.6721   16.7103   31.8857 H       1  UNL1        0.0000
   3740 H           8.0036   25.2371   30.3228 H       1  UNL1        0.0000
   3741 H          11.4960   26.5121   28.8250 H       1  UNL1        0.0000
   3742 H          17.9758   13.4613   29.6253 H       1  UNL1        0.0000
   3743 H          14.1949   21.4110   28.5353 H       1  UNL1        0.0000
   3744 H           9.5104   14.4172   36.9406 H       1  UNL1        0.0000
   3745 H          16.7140   14.2493   35.9900 H      54  UNL54       0.0000
   3746 H          15.2329   13.7802   36.7373 H      54  UNL54       0.0000
   3747 H          17.2882   18.6829   34.8911 H       1  UNL1        0.0000
   3748 H          16.7184   19.0415   33.2726 H       1  UNL1        0.0000
   3749 H          16.2252    9.2945   35.8000 H       1  UNL1        0.0000
   3750 H          14.9461   10.3950   36.2574 H       1  UNL1        0.0000
   3751 C          17.9029   18.6450   30.9657 C.2     1  UNL1        0.0000
   3752 C           5.5339   16.7664   34.6199 C.3     1  UNL1        0.0000
   3753 C          13.1716   11.5581   34.7222 C.3     1  UNL1        0.0000
   3754 C          10.1662   23.7014   30.8333 C.3     1  UNL1        0.0000
   3755 C          18.7989   18.0406   31.9609 C.2     1  UNL1        0.0000
   3756 C           4.6020   17.3914   33.6429 C.ar    1  UNL1        0.0000
   3757 C          14.1118   10.9437   33.7751 C.ar    1  UNL1        0.0000
   3758 C           9.2764   24.3482   31.8331 C.2     1  UNL1        0.0000
   3759 C          18.5502   18.1156   33.3673 C.3     1  UNL1        0.0000
   3760 C           4.8184   17.2714   32.2548 C.ar    1  UNL1        0.0000
   3761 C          15.2413   10.1834   34.2281 C.ar    1  UNL1        0.0000
   3762 C           8.1816   25.1212   31.3882 C.3     1  UNL1        0.0000
   3763 C           9.5308   24.1775   33.1880 C.2     1  UNL1        0.0000
   3764 C          13.8641   11.0759   32.3911 C.ar    1  UNL1        0.0000
   3765 C          19.9326   17.3417   31.4851 C.3     1  UNL1        0.0000
   3766 C           3.5018   18.0838   34.1415 C.ar    1  UNL1        0.0000
   3767 C          18.1147   15.5592   26.2787 C.ar    1  UNL1        0.0000
   3768 C          11.6450   27.3508   26.3037 C.2     1  UNL1        0.0000
   3769 C          20.5991   21.3223   26.1527 C.2     1  UNL1        0.0000
   3770 C           7.2408   22.8648   26.1333 C.ar    1  UNL1        0.0000
   3771 C          12.8490   19.3877   31.8385 C.3     1  UNL1        0.0000
   3772 C           8.0929   12.2934   33.7567 C.3     1  UNL1        0.0000
   3773 C          17.9788   17.0141   26.2555 C.3     1  UNL1        0.0000
   3774 C          11.5522   25.9173   26.2662 C.2     1  UNL1        0.0000
   3775 C          19.3013   20.7055   26.1996 C.2     1  UNL1        0.0000
   3776 C           8.6431   23.2791   26.1578 C.3     1  UNL1        0.0000
   3777 C          18.1540   14.8901   27.5084 C.ar    1  UNL1        0.0000
   3778 C           7.0072   20.9905   38.1614 C.3    55  UNL55       0.0000
   3779 C          21.2544   21.5971   27.3867 C.3     1  UNL1        0.0000
   3780 C           1.9730   15.5690   37.9999 C.3    22  UNL22       0.0000
   3781 C          16.6588   14.5246   38.0143 C.3    54  UNL54       0.0000
   3782 C           6.5436   22.6343   27.3458 C.ar    1  UNL1        0.0000
   3783 C          13.4965    7.7527   38.1635 C.3    32  UNL32       0.0000
   3784 C          11.6587   28.1020   27.5330 C.3     1  UNL1        0.0000
   3785 N          11.7138   27.5032   28.7712 N.3     1  UNL1        0.0000
   3786 N          16.0798   14.3418   36.7754 N.3    54  UNL54       0.0000
   3787 N          17.4693   18.7618   33.8986 N.3     1  UNL1        0.0000
   3788 N          15.5723   10.0252   35.5455 N.pl3   1  UNL1        0.0000
   3789 O          16.7266   19.0501   31.3315 O.2     1  UNL1        0.0000
   3790 O           6.3029   15.8155   34.2216 O.3     1  UNL1        0.0000
   3791 O          13.5531   11.6826   35.9434 O.3     1  UNL1        0.0000
   3792 O          10.1003   24.1311   29.6337 O.3     1  UNL1        0.0000
   3793 O          10.9366   22.7442   31.2197 O.3     1  UNL1        0.0000
   3794 O          12.0012   11.9265   34.3167 O.3     1  UNL1        0.0000
   3795 O          18.3148   18.7257   29.7539 O.2     1  UNL1        0.0000
   3796 O           5.4918   17.2026   35.8196 O.3     1  UNL1        0.0000
   3797 O          15.6423   18.4708   28.7549 O.3     1  UNL1        0.0000
   3798 O           7.9961   16.3294   36.3200 O.3     1  UNL1        0.0000
   3799 O          16.5811   20.7581   29.2049 O.3     1  UNL1        0.0000
   3800 O           6.2439   14.6048   36.8127 O.3     1  UNL1        0.0000
   3801 O          10.8504   11.3968   36.9074 O.3     1  UNL1        0.0000
   3802 O          12.6188   23.2922   29.1355 O.3     1  UNL1        0.0000
   3803 O          11.8043   13.6583   36.4432 O.3     1  UNL1        0.0000
   3804 O          10.9126   21.5351   28.6180 O.3     1  UNL1        0.0000
   3805 O          14.0701   19.2079   31.4843 O.3     1  UNL1        0.0000
   3806 O           7.4353   13.3283   34.1349 O.3     1  UNL1        0.0000
   3807 O          13.2216   10.5426   38.2094 O.3     1  UNL1        0.0000
   3808 O          11.4691   25.2158   27.3614 O.2     1  UNL1        0.0000
   3809 O          14.0238   13.3308   38.2043 O.3     1  UNL1        0.0000
   3810 O           9.2332   23.3801   27.3014 O.3     1  UNL1        0.0000
   3811 O           9.2547   11.9988   34.2145 O.3     1  UNL1        0.0000
   3812 O          12.1072   20.3086   31.3452 O.3     1  UNL1        0.0000
   3813 O          18.7620   20.4053   27.3476 O.2     1  UNL1        0.0000
   3814 O           4.6076   16.4449   38.1354 O.3     1  UNL1        0.0000
   3815 O          17.9664   17.6510   27.3770 O.3     1  UNL1        0.0000
   3816 O           6.8758   18.2273   38.2167 O.3     1  UNL1        0.0000
   3817 O          13.8341   20.8623   29.2560 O.3     1  UNL1        0.0000
   3818 O           9.1321   13.8585   36.2370 O.3     1  UNL1        0.0000
   3819 O          16.2882   19.6372   26.3232 O.3     1  UNL1        0.0000
   3820 O          11.7205   22.7392   26.1564 O.3     1  UNL1        0.0000
   3821 H          12.9902   15.5937   34.5516 H       1  UNL1        0.0000
   3822 H           9.2367   10.1686   32.5434 H       1  UNL1        0.0000
   3823 H          13.9268   24.8010   31.3372 H      54  UNL54       0.0000
   3824 H          14.0356   17.2471   32.9740 H       1  UNL1        0.0000
   3825 H           9.3080   17.8225   34.4472 H       1  UNL1        0.0000
   3826 H           5.5561   12.3751   32.8586 H       1  UNL1        0.0000
   3827 H          10.6346   15.8958   35.2600 H       1  UNL1        0.0000
   3828 H          10.3525   19.4688   32.8560 H       1  UNL1        0.0000
   3829 H          15.2396   22.9255   30.3794 H      54  UNL54       0.0000
   3830 H           1.6217   23.1759   30.8903 H      23  UNL23       0.0000
   3831 C          12.2541   18.4534   32.8287 C.ar    1  UNL1        0.0000
   3832 C          11.0915   16.6177   34.5844 C.ar    1  UNL1        0.0000
   3833 C          15.7158   23.6236   31.0672 C.2    54  UNL54       0.0000
   3834 C           7.4597   11.3657   32.7857 C.ar    1  UNL1        0.0000
   3835 C          10.9199   18.6244   33.2422 C.ar    1  UNL1        0.0000
   3836 C          12.4231   16.4476   34.1838 C.ar    1  UNL1        0.0000
   3837 C          14.9769   24.6871   31.6025 C.2    54  UNL54       0.0000
   3838 C           8.1947   10.2900   32.2540 C.ar    1  UNL1        0.0000
   3839 C          17.0644   23.4531   31.4039 C.3    54  UNL54       0.0000
   3840 C           6.1075   11.5384   32.4349 C.ar    1  UNL1        0.0000
   3841 C          13.0070   17.3654   33.3089 C.ar    1  UNL1        0.0000
   3842 C          10.3414   17.7072   34.1220 C.ar    1  UNL1        0.0000
   3843 H           9.4299   19.4272   38.7376 H      54  UNL54       0.0000
   3844 H          10.9813   18.0322   36.8827 H      54  UNL54       0.0000
   3845 C          10.2246   18.7048   38.8745 C.2    54  UNL54       0.0000
   3846 H          13.6062   17.7909   36.6070 H      54  UNL54       0.0000
   3847 C          10.9869   18.0214   37.9655 C.2    54  UNL54       0.0000
   3848 H           9.5733   19.7192   41.2639 H      54  UNL54       0.0000
   3849 N          10.6398   18.3118   40.1347 N.pl3  54  UNL54       0.0000
   3850 C          14.0124   17.2113   37.4457 C.3    54  UNL54       0.0000
   3851 H          14.4853   17.8992   38.1577 H      54  UNL54       0.0000
   3852 C          10.0606   18.7512   41.4116 C.3    54  UNL54       0.0000
   3853 N          11.8562   17.2207   38.6862 N.pl3  54  UNL54       0.0000
   3854 H           9.3195   18.0143   41.7474 H      54  UNL54       0.0000
   3855 H          14.7816   16.5325   37.0497 H      54  UNL54       0.0000
   3856 C          11.6286   17.4076   39.9998 C.3    54  UNL54       0.0000
   3857 C          12.9277   16.3759   38.1186 C.3    54  UNL54       0.0000
   3858 H          12.4631   15.6670   37.4204 H      54  UNL54       0.0000
   3859 H          10.8573   18.8467   42.1555 H      54  UNL54       0.0000
   3860 H          12.1491   16.9111   40.8101 H      54  UNL54       0.0000
   3861 H          13.3318   15.7937   38.9534 H      54  UNL54       0.0000
@<TRIPOS>BOND
     1  3447  3534    1
     2  2160  2247    1
     3  2589  2676    1
     4  1731  1818    1
     5   444   531    1
     6  3018  3105    1
     7  1302  1389    1
     8    15   102    1
     9   873   960    1
    10  1768  1774    2
    11  1768  1780    1
    12  1339  1345    2
    13  1339  1351    1
    14    52    58    2
    15    52    64    1
    16   910   916    2
    17   910   922    1
    18  2197  2203    2
    19  2197  2209    1
    20  3484  3490    2
    21  3484  3496    1
    22  3055  3061    2
    23  3055  3067    1
    24   481   487    2
    25   481   493    1
    26  2626  2632    2
    27  2626  2638    1
    28   480   486    2
    29   480   490    1
    30  1767  1773    2
    31  1767  1777    1
    32  1338  1344    2
    33  1338  1348    1
    34    51    57    2
    35    51    61    1
    36   909   915    2
    37   909   919    1
    38  2625  2631    2
    39  2625  2635    1
    40  2196  2202    2
    41  2196  2206    1
    42  3483  3489    2
    43  3483  3493    1
    44  3054  3060    2
    45  3054  3064    1
    46  3534  3437    1
    47  3105  3008    1
    48  1818  1721    1
    49   531   434    1
    50  1389  1292    1
    51  2247  2150    1
    52   960   863    1
    53   102     5    1
    54  2676  2579    1
    55  3490  3524    1
    56    58    92    1
    57  1774  1808    1
    58  3061  3095    1
    59  2632  2666    1
    60   916   950    1
    61  1345  1379    1
    62   487   521    1
    63  2203  2237    1
    64  1344  1382    1
    65  3489  3527    1
    66  2631  2669    1
    67   486   524    1
    68    57    95    1
    69  1773  1811    1
    70   915   953    1
    71  3060  3098    1
    72  2202  2240    1
    73  2629  2623    2
    74  2629  2671    1
    75  3487  3481    2
    76  3487  3529    1
    77   913   907    2
    78   913   955    1
    79  1342  1336    2
    80  1342  1384    1
    81   484   478    2
    82   484   526    1
    83  2200  2194    2
    84  2200  2242    1
    85  1771  1765    2
    86  1771  1813    1
    87  3058  3052    2
    88  3058  3100    1
    89    55    49    2
    90    55    97    1
    91   485   479    2
    92   485   519    1
    93  2630  2624    2
    94  2630  2664    1
    95  3059  3053    2
    96  3059  3093    1
    97   914   908    2
    98   914   948    1
    99  1343  1337    2
   100  1343  1377    1
   101  3488  3482    2
   102  3488  3522    1
   103  1772  1766    2
   104  1772  1806    1
   105    56    50    2
   106    56    90    1
   107  2201  2195    2
   108  2201  2235    1
   109  3481  3491    1
   110    49    59    1
   111   478   488    1
   112  2194  2204    1
   113   907   917    1
   114  1765  1775    1
   115  3052  3062    1
   116  2623  2633    1
   117  1336  1346    1
   118  1337  1353    1
   119   479   495    1
   120   908   924    1
   121  2624  2640    1
   122  3053  3069    1
   123    50    66    1
   124  1766  1782    1
   125  3482  3498    1
   126  2195  2211    1
   127  2675  2590    1
   128  2675  2576    1
   129   101    16    1
   130   101     2    1
   131  3533  3448    1
   132  3533  3434    1
   133   530   445    1
   134   530   431    1
   135  2246  2161    1
   136  2246  2147    1
   137  3104  3019    1
   138  3104  3005    1
   139   959   874    1
   140   959   860    1
   141  1817  1732    1
   142  1817  1718    1
   143  1388  1303    1
   144  1388  1289    1
   145   950   863    1
   146   521   434    1
   147    92     5    1
   148  2237  2150    1
   149  3524  3437    1
   150  3095  3008    1
   151  1808  1721    1
   152  1379  1292    1
   153  2666  2579    1
   154  2209   919    1
   155  2209  2159    1
   156   493   443    1
   157    64    14    1
   158  3496  2206    1
   159  3496  3446    1
   160   922   872    1
   161  3067  1777    1
   162  3067  3017    1
   163  1780   490    1
   164  1780  1730    1
   165  1351    61    1
   166  1351  1301    1
   167  2638  1348    1
   168  2638  2588    1
   169   524   431    1
   170  3098  3005    1
   171  2240  2147    1
   172   953   860    1
   173  1811  1718    1
   174  1382  1289    1
   175    95     2    1
   176  3527  3434    1
   177  2669  2576    1
   178  2235  2150    1
   179   948   863    1
   180  1806  1721    1
   181   519   434    1
   182  3522  3437    1
   183  1377  1292    1
   184  3093  3008    1
   185  2664  2579    1
   186    90     5    1
   187    97     2    1
   188  3529  3434    1
   189  2671  2576    1
   190   526   431    1
   191   955   860    1
   192  3100  3005    1
   193  2242  2147    1
   194  1384  1289    1
   195  1813  1718    1
   196  2635  2586    1
   197  3493  3444    1
   198  2206  2157    1
   199    61    12    1
   200  3064  3015    1
   201  1348  1299    1
   202   490   441    1
   203   919   870    1
   204  1777  1728    1
   205  1346  1297    1
   206  3062  2640    1
   207  3062  3013    1
   208   917   495    1
   209   917   868    1
   210   488    66    1
   211   488   439    1
   212  1775  1353    1
   213  1775  1726    1
   214  2204  1782    1
   215  2204  2155    1
   216    59    10    1
   217  2633  2584    1
   218  3491  3069    1
   219  3491  3442    1
   220    66    67    1
   221   495   496    1
   222   924   925    1
   223  3498  3499    1
   224  2211  2212    1
   225  1782  1783    1
   226  2640  2641    1
   227  1353  1354    1
   228  3069  3070    1
   229  1721  1802    1
   230  1721  1800    1
   231  1721  1790    1
   232     5    86    1
   233     5    84    1
   234     5    74    1
   235  1292  1373    1
   236  1292  1371    1
   237  1292  1361    1
   238  3437  3518    1
   239  3437  3516    1
   240  3437  3506    1
   241  2579  2660    1
   242  2579  2658    1
   243  2579  2648    1
   244  3008  3089    1
   245  3008  3087    1
   246  3008  3077    1
   247   434   515    1
   248   434   513    1
   249   434   503    1
   250   863   944    1
   251   863   942    1
   252   863   932    1
   253  2150  2231    1
   254  2150  2229    1
   255  2150  2219    1
   256  1718  1795    1
   257  1718  1797    1
   258  1718  1793    1
   259  1289  1366    1
   260  1289  1368    1
   261  1289  1364    1
   262   431   508    1
   263   431   510    1
   264   431   506    1
   265   860   937    1
   266   860   939    1
   267   860   935    1
   268  3434  3511    1
   269  3434  3513    1
   270  3434  3509    1
   271     2    79    1
   272     2    81    1
   273     2    77    1
   274  3005  3082    1
   275  3005  3084    1
   276  3005  3080    1
   277  2147  2224    1
   278  2147  2226    1
   279  2147  2222    1
   280  2576  2653    1
   281  2576  2655    1
   282  2576  2651    1
   283  3457  3531    1
   284  1741  1815    1
   285  3028  3102    1
   286   883   957    1
   287    25    99    1
   288  2599  2673    1
   289  2170  2244    1
   290  1312  1386    1
   291   454   528    1
   292   944   862    1
   293  2660  2578    1
   294   515   433    1
   295  1802  1720    1
   296  3089  3007    1
   297  3518  3436    1
   298    86     4    1
   299  1373  1291    1
   300  2231  2149    1
   301  3082  3011    1
   302  3511  3440    1
   303    79     8    1
   304  1366  1295    1
   305  1795  1724    1
   306   508   437    1
   307  2653  2582    1
   308   937   866    1
   309  2224  2153    1
   310   496   452    1
   311   496   882    1
   312  2212  2168    1
   313  1354  1310    1
   314  1354  1740    1
   315   925   881    1
   316    67    23    1
   317    67   453    1
   318  2641  2597    1
   319  2641  3027    1
   320  3499  3455    1
   321  1783  1739    1
   322  1783  2169    1
   323  3070  3026    1
   324  3070  3456    1
   325  2229  2149    1
   326  1371  1291    1
   327  3516  3436    1
   328   942   862    1
   329    84     4    1
   330  3087  3007    1
   331   513   433    1
   332  2658  2578    1
   333  1800  1720    1
   334  2655  2582    1
   335  2226  2153    1
   336   939   866    1
   337  3513  3440    1
   338   510   437    1
   339  3084  3011    1
   340  1797  1724    1
   341  1368  1295    1
   342    81     8    1
   343  1386  1295    1
   344  2244  2153    1
   345   528   437    1
   346  3102  3011    1
   347  1815  1724    1
   348    99     8    1
   349  3531  3440    1
   350   957   866    1
   351  2673  2582    1
   352    74    36    1
   353  3506  3468    1
   354   932   894    1
   355  1361  1323    1
   356  3077  3039    1
   357  1790  1752    1
   358  2648  2610    1
   359  2219  2181    1
   360   503   465    1
   361  3080  3036    1
   362  2222  2178    1
   363   935   891    1
   364  1793  1749    1
   365  3509  3465    1
   366   506   462    1
   367  2651  2607    1
   368    77    33    1
   369  1364  1320    1
   370  2578  2649    1
   371  2578  2668    1
   372  1291  1362    1
   373  1291  1381    1
   374  2149  2220    1
   375  2149  2239    1
   376  3007  3078    1
   377  3007  3097    1
   378   862   933    1
   379   862   952    1
   380   433   504    1
   381   433   523    1
   382     4    75    1
   383     4    94    1
   384  1720  1791    1
   385  1720  1810    1
   386  3436  3507    1
   387  3436  3526    1
   388   866   929    1
   389   866   945    1
   390  3440  3503    1
   391  3440  3519    1
   392  2582  2645    1
   393  2582  2661    1
   394  1724  1787    1
   395  1724  1803    1
   396  2153  2216    1
   397  2153  2232    1
   398  1295  1358    1
   399  1295  1374    1
   400     8    71    1
   401     8    87    1
   402  3011  3074    1
   403  3011  3090    1
   404   437   500    1
   405   437   516    1
   406  2167  2189    1
   407    22    44    1
   408   451   473    1
   409  2596  2618    1
   410  1309  1331    1
   411  1738  1760    1
   412  3454  3476    1
   413  3025  3047    1
   414   880   902    1
   415  3114  3118    1
   416   540   544    1
   417  2256  2260    1
   418   969   973    1
   419  1398  1402    1
   420  3543  3547    1
   421  2685  2689    1
   422   111   115    1
   423  1827  1831    1
   424  1307  1334    1
   425   449   476    1
   426    20    47    1
   427  3023  3050    1
   428  3452  3479    1
   429  2594  2621    1
   430  1736  1763    1
   431  2165  2192    1
   432   878   905    1
   433    36    75    1
   434    36    40    1
   435  2610  2649    1
   436  2610  2614    1
   437  1323  1362    1
   438  1323  1327    1
   439  2181  2220    1
   440  2181  2185    1
   441  3468  3507    1
   442  3468  3472    1
   443  3039  3078    1
   444  3039  3043    1
   445   894   933    1
   446   894   898    1
   447  1752  1791    1
   448  1752  1756    1
   449   465   504    1
   450   465   469    1
   451  3115  1837    1
   452  3544  2266    1
   453  1399   121    1
   454  2686  1408    1
   455  1828   550    1
   456  2257   979    1
   457    33    71    1
   458    33    37    1
   459  3465  3503    1
   460  3465  3469    2
   461  2607  2645    1
   462  2607  2611    2
   463   462   500    1
   464   462   466    1
   465  1749  1787    1
   466  1749  1753    1
   467  2178  2216    1
   468  2178  2182    1
   469   891   929    1
   470   891   895    1
   471  3036  3074    1
   472  3036  3040    2
   473  1320  1358    1
   474  1320  1324    1
   475   973   979    1
   476   973   977    2
   477   115   121   ar
   478   115   119   ar
   479  1831  1837   ar
   480  1831  1835   ar
   481  2260  2266    1
   482  2260  2264    2
   483  1402  1408   ar
   484  1402  1406   ar
   485  2689  2695    1
   486  2689  2693    2
   487   544   550   ar
   488   544   548   ar
   489  3118  3124    1
   490  3118  3122    2
   491  3547  3553    1
   492  3547  3551    2
   493  1821  1835    1
   494  2250  2264    1
   495   105   119    1
   496   963   977    1
   497  1392  1406    1
   498   534   548    1
   499  3108  3122    1
   500  2679  2693    1
   501  3537  3551    1
   502   523   482    1
   503    94    53    1
   504  1381  1340    1
   505  2239  2198    1
   506  3097  3056    1
   507  3526  3485    1
   508   952   911    1
   509  1810  1769    1
   510  2668  2627    1
   511  1760  1756   ar
   512  1760  2191   ar
   513   473   469   ar
   514   473   904   ar
   515    44    40   ar
   516    44   475   ar
   517  3047  3043   ar
   518  3047  3478   ar
   519  1331  1327   ar
   520  1331  1762   ar
   521  3476  3472    1
   522   902   898    1
   523  2618  2614   ar
   524  2618  3049   ar
   525  2189  2185    1
   526   550  2265   ar
   527   121  1836   ar
   528  1408  3123   ar
   529  1837  3552   ar
   530  2232  2198    1
   531   945   911    1
   532   516   482    1
   533  1803  1769    1
   534  1374  1340    1
   535  3519  3485    1
   536  3090  3056    1
   537  2661  2627    1
   538    87    53    1
   539  3479  3469    1
   540  1763  1753   ar
   541  1763  3045   ar
   542  1334  1324   ar
   543  1334  2616   ar
   544   476   466   ar
   545   476  1758   ar
   546  2192  2182   ar
   547  2192  3474   ar
   548  2621  2611    1
   549  3050  3040    1
   550    47    37   ar
   551    47  1329   ar
   552   905   895   ar
   553   905  2187   ar
   554  1406  3125   ar
   555  1835  3554   ar
   556   119  1838   ar
   557   548  2267   ar
   558  3472  3477    2
   559  1327  1332   ar
   560   898   903    2
   561  3043  3048   ar
   562    40    45   ar
   563  2185  2190    2
   564  2614  2619   ar
   565  1756  1761   ar
   566   469   474   ar
   567  3485  3545    1
   568  2627  2687    1
   569  2198  2258    1
   570  3056  3116    1
   571    53   113    1
   572  1769  1829    1
   573  1340  1400    1
   574   482   542    1
   575   911   971    1
   576  1737  1758    1
   577  1308  1329    1
   578  3453  3474    1
   579   879   900    1
   580  2595  2616    1
   581  2166  2187    1
   582  3024  3045    1
   583    21    42    1
   584   450   471    1
   585  1753  1757   ar
   586  2611  2615    1
   587   895   899   ar
   588    37    41   ar
   589  3040  3044    1
   590  1324  1328   ar
   591  2182  2186   ar
   592   466   470   ar
   593  3469  3473    1
   594   446   475    1
   595  1304  1333    1
   596   875   904    1
   597  2162  2191    1
   598  1733  1762    1
   599  2591  2620    1
   600  3020  3049    1
   601    17    46    1
   602  3449  3478    1
   603   549   533    1
   604   549   545    1
   605  3552  3536    1
   606  3552  3548   ar
   607  1407  1391    1
   608  1407  1403    1
   609  1836  1820    1
   610  1836  1832   ar
   611  2265  2249    1
   612  2265  2261   ar
   613   978   962    1
   614   978   974    1
   615   120   104    1
   616   120   116    1
   617  2694  2678    1
   618  2694  2690    1
   619  3123  3107    1
   620  3123  3119   ar
   621    42    38    1
   622   900   896    1
   623  2616  2612   ar
   624  2187  2183   ar
   625  3474  3470   ar
   626  1758  1754   ar
   627  1329  1325   ar
   628   471   467    1
   629  3045  3041   ar
   630  1333  1326    1
   631  3049  3042   ar
   632  1762  1755   ar
   633    46    39    1
   634   475   468   ar
   635  2191  2184   ar
   636   904   897   ar
   637  2620  2613    1
   638  3478  3471   ar
   639   980   974    1
   640   980   966    1
   641   122   116    1
   642   122   108    1
   643  2696  2690    1
   644  2696  2682    1
   645  1409  1403    1
   646  1409  1395    1
   647  2267  2261   ar
   648  2267  2253    1
   649  3554  3548   ar
   650  3554  3540    1
   651  3125  3119   ar
   652  3125  3111    1
   653  1838  1832   ar
   654  1838  1824    1
   655   551   545    1
   656   551   537    1
   657   974   912    2
   658  3119  3057    1
   659   116    54    2
   660  1403  1341    2
   661  2261  2199    1
   662  3548  3486    1
   663  1832  1770    1
   664   545   483    2
   665  2690  2628    2
   666   113   117   ar
   667   113   123   ar
   668   542   546   ar
   669   542   552   ar
   670  3545  3549   ar
   671  3545  3555   ar
   672  1400  1404   ar
   673  1400  1410   ar
   674  2687  2691   ar
   675  2687  2697   ar
   676  3116  3120   ar
   677  3116  3126   ar
   678  2258  2262   ar
   679  2258  2268   ar
   680   971   975   ar
   681   971   981   ar
   682  1829  1833   ar
   683  1829  1839   ar
   684  2684  2691    1
   685   539   546    1
   686  1397  1404    1
   687   968   975    1
   688  3113  3120    1
   689  3542  3549    1
   690   110   117    1
   691  1826  1833    1
   692  2255  2262    1
   693   535   552    1
   694  3109  3126    1
   695  2680  2697    1
   696   964   981    1
   697  1822  1839    1
   698   106   123    1
   699  2251  2268    1
   700  1393  1410    1
   701  3538  3555    1
   702   474   447    1
   703   474   901   ar
   704    45    18    1
   705    45   472   ar
   706  2619  2592    1
   707  2619  3046   ar
   708  3477  3450    1
   709  1332  1305    1
   710  1332  1759   ar
   711   903   876    1
   712  3048  3021    1
   713  3048  3475   ar
   714  1761  1734    1
   715  1761  2188   ar
   716  2190  2163    1
   717   117   124   ar
   718   546   553   ar
   719  3549  3556   ar
   720  2262  2269   ar
   721  2691  2698   ar
   722  1833  1840   ar
   723  3120  3127   ar
   724  1404  1411   ar
   725   975   982   ar
   726  3033  3072    1
   727  3462  3501    1
   728   888   927    1
   729   459   498    1
   730  1746  1785    1
   731  2175  2214    1
   732  1317  1356    1
   733  2604  2643    1
   734    30    69    1
   735   552   547   ar
   736  1410  1405   ar
   737  1839  1834   ar
   738  2697  2692   ar
   739  2268  2263   ar
   740   123   118   ar
   741  3126  3121   ar
   742   981   976   ar
   743  3555  3550   ar
   744    41    69    1
   745    41  1335   ar
   746  2186  2214    1
   747  2186  3480   ar
   748   470   498    1
   749   470  1764   ar
   750  1757  1785    1
   751  1757  3051   ar
   752   899   927    1
   753   899  2193   ar
   754  3473  3501    1
   755  2615  2643    1
   756  1328  1356    1
   757  1328  2622   ar
   758  3044  3072    1
   759  2183  2193   ar
   760  2183  2179    1
   761  1754  1764   ar
   762  1754  1750    1
   763  3470  3480   ar
   764  3470  3466    1
   765   467   477    2
   766   467   463    1
   767   896   906    2
   768   896   892    1
   769  1325  1335   ar
   770  1325  1321    1
   771  2612  2622   ar
   772  2612  2608    1
   773    38    48    2
   774    38    34    1
   775  3041  3051   ar
   776  3041  3037    1
   777  2199  2233    1
   778  2199  2238    1
   779   483   517    1
   780   483   522    1
   781  1770  1804    1
   782  1770  1809    1
   783  3057  3091    1
   784  3057  3096    1
   785  3486  3520    1
   786  3486  3525    1
   787  2628  2662    1
   788  2628  2667    1
   789    54    88    1
   790    54    93    1
   791  1341  1375    1
   792  1341  1380    1
   793   912   946    1
   794   912   951    1
   795  2613  2617    2
   796  2613  2609    1
   797   468   472   ar
   798   468   464    1
   799    39    43    2
   800    39    35    1
   801  1326  1330    2
   802  1326  1322    1
   803  3471  3475   ar
   804  3471  3467    1
   805  2184  2188   ar
   806  2184  2180    1
   807  1755  1759   ar
   808  1755  1751    1
   809  3042  3046   ar
   810  3042  3038    1
   811   897   901   ar
   812   897   893    1
   813  3072  3032    1
   814  3501  3461    1
   815  2214  2174    1
   816   498   458    1
   817    69    29    1
   818  1785  1745    1
   819   927   887    1
   820  1356  1316    1
   821  2643  2603    1
   822   553   536    1
   823   553   543   ar
   824  1840  1823    1
   825  1840  1830   ar
   826  1411  1394    1
   827  1411  1401   ar
   828  2698  2681    1
   829  2698  2688   ar
   830   982   965    1
   831   982   972   ar
   832  3127  3110    1
   833  3127  3117   ar
   834   124   107    1
   835   124   114   ar
   836  2269  2252    1
   837  2269  2259   ar
   838  3556  3539    1
   839  3556  3546   ar
   840   946   865    1
   841    88     7    1
   842  2233  2152    1
   843   517   436    1
   844  3091  3010    1
   845  1375  1294    1
   846  1804  1723    1
   847  2662  2581    1
   848  3520  3439    1
   849  3480  3451    1
   850  1764  1735    1
   851    48    19    1
   852   906   877    1
   853  1335  1306    1
   854  2622  2593    1
   855  2193  2164    1
   856   477   448    1
   857  3051  3022    1
   858  1405  1390    1
   859  1405  1401   ar
   860  2692  2677    1
   861  2692  2688   ar
   862  1834  1819    1
   863  1834  1830   ar
   864  3121  3106    1
   865  3121  3117   ar
   866  2263  2248    1
   867  2263  2259   ar
   868   976   961    1
   869   976   972   ar
   870   547   532    1
   871   547   543   ar
   872  3550  3535    1
   873  3550  3546   ar
   874   118   103    1
   875   118   114   ar
   876   951   861    1
   877  1380  1290    1
   878   522   432    1
   879  1809  1719    1
   880  2238  2148    1
   881  3525  3435    1
   882    93     3    1
   883  2667  2577    1
   884  3096  3006    1
   885  3504  3466    1
   886  3504  3439    1
   887  2646  2608    1
   888  2646  2581    1
   889  2217  2179    1
   890  2217  2152    1
   891    72    34    1
   892    72     7    1
   893   930   892    1
   894   930   865    1
   895   501   463    1
   896   501   436    1
   897  1359  1321    1
   898  1359  1294    1
   899  1788  1750    1
   900  1788  1723    1
   901  3075  3037    1
   902  3075  3010    1
   903  1330  1357    1
   904   901   928    1
   905  2617  2644    1
   906   472   499    1
   907  3046  3073    1
   908  3475  3502    1
   909  2188  2215    1
   910  1759  1786    1
   911    43    70    1
   912  3508  3467    1
   913  3508  3435    1
   914  3079  3038    1
   915  3079  3006    1
   916  2221  2180    1
   917  2221  2148    1
   918  1363  1322    1
   919  1363  1290    1
   920    76    35    1
   921    76     3    1
   922  1792  1751    1
   923  1792  1719    1
   924   505   464    1
   925   505   432    1
   926   934   893    1
   927   934   861    1
   928  2650  2609    1
   929  2650  2577    1
   930   972   967    1
   931  1401  1396    1
   932  3546  3541    1
   933  1830  1825    1
   934   114   109    1
   935  2259  2254    1
   936  2688  2683    1
   937  3117  3112    1
   938   543   538    1
   939  1750  1794    1
   940  2608  2652    1
   941  1321  1365    1
   942   463   507    1
   943  2179  2223    1
   944  3466  3510    1
   945    34    78    1
   946   892   936    1
   947  3037  3081    1
   948  3467  3505    1
   949  2180  2218    1
   950  1751  1789    1
   951  3038  3076    1
   952    35    73    1
   953  1322  1360    1
   954  2609  2647    1
   955   464   502    1
   956   893   931    1
   957   499   460    1
   958   499   461    1
   959  2215  2176    1
   960  2215  2177    1
   961  1357  1318    1
   962  1357  1319    1
   963  3073  3034    1
   964  3073  3035    1
   965  1786  1747    1
   966  1786  1748    1
   967    70    31    1
   968    70    32    1
   969  3502  3463    1
   970  3502  3464    1
   971   928   889    1
   972   928   890    1
   973  2644  2605    1
   974  2644  2606    1
   975  2152  2245    1
   976  2152  2225    1
   977  2152  2227    1
   978   436   529    1
   979   436   509    1
   980   436   511    1
   981  3010  3103    1
   982  3010  3083    1
   983  3010  3085    1
   984  1723  1816    1
   985  1723  1796    1
   986  1723  1798    1
   987  3439  3532    1
   988  3439  3512    1
   989  3439  3514    1
   990     7   100    1
   991     7    80    1
   992     7    82    1
   993  2581  2674    1
   994  2581  2654    1
   995  2581  2656    1
   996   865   958    1
   997   865   938    1
   998   865   940    1
   999  1294  1387    1
  1000  1294  1367    1
  1001  1294  1369    1
  1002     3    85    1
  1003     3    83    1
  1004  2148  2230    1
  1005  2148  2228    1
  1006   432   514    1
  1007   432   512    1
  1008  2577  2659    1
  1009  2577  2657    1
  1010  3006  3088    1
  1011  3006  3086    1
  1012  1719  1801    1
  1013  1719  1799    1
  1014  3435  3517    1
  1015  3435  3515    1
  1016  1290  1372    1
  1017  1290  1370    1
  1018   861   943    1
  1019   861   941    1
  1020  2223  2146    1
  1021    78     1    1
  1022  3510  3433    1
  1023  1365  1288    1
  1024  2652  2575    1
  1025   507   430    1
  1026  3081  3004    1
  1027  1794  1717    1
  1028   936   859    1
  1029   502   435    1
  1030  3505  3438    1
  1031    73     6    1
  1032  2218  2151    1
  1033  3076  3009    1
  1034  2647  2580    1
  1035  1789  1722    1
  1036  1360  1293    1
  1037   931   864    1
  1038    27    68    1
  1039  2172  2213    1
  1040  3030  3071    1
  1041   456   497    1
  1042  3459  3500    1
  1043  1314  1355    1
  1044  2601  2642    1
  1045  1743  1784    1
  1046   885   926    1
  1047  2245  2171    1
  1048   529   455    1
  1049  1387  1313    1
  1050   100    26    1
  1051  2674  2600    1
  1052  3532  3458    1
  1053  3103  3029    1
  1054   958   884    1
  1055  1816  1742    1
  1056  2654  2575    1
  1057  2225  2146    1
  1058  3083  3004    1
  1059  3512  3433    1
  1060   509   430    1
  1061    80     1    1
  1062  1796  1717    1
  1063   938   859    1
  1064  1367  1288    1
  1065  1372  1293    1
  1066  3088  3009    1
  1067  3517  3438    1
  1068  2659  2580    1
  1069   514   435    1
  1070  2230  2151    1
  1071  1801  1722    1
  1072    85     6    1
  1073   943   864    1
  1074   557   561    1
  1075  2273  2277    1
  1076   986   990    1
  1077  3131  3135    1
  1078  1415  1419    1
  1079  2702  2706    1
  1080   128   132    1
  1081  3560  3564    1
  1082  1844  1848    1
  1083  1744  1784    1
  1084  2602  2642    1
  1085    28    68    1
  1086  2173  2213    1
  1087  3031  3071    1
  1088  1315  1355    1
  1089   457   497    1
  1090  3460  3500    1
  1091   886   926    1
  1092  3071  3066    1
  1093   497   492    1
  1094  1784  1779    1
  1095  3500  3495    1
  1096  2213  2208    1
  1097    68    63    1
  1098  1355  1350    1
  1099  2642  2637    1
  1100   926   921    1
  1101  1369  1288    1
  1102    82     1    1
  1103   940   859    1
  1104  2227  2146    1
  1105   511   430    1
  1106  2656  2575    1
  1107  3085  3004    1
  1108  1798  1717    1
  1109  3514  3433    1
  1110   126   129    1
  1111  3129  3132    1
  1112  2700  2703    1
  1113  2271  2274    1
  1114   984   987    1
  1115  3558  3561    1
  1116   555   558    1
  1117  1842  1845    1
  1118  1413  1416    1
  1119  3515  3438    1
  1120  1370  1293    1
  1121  2657  2580    1
  1122   512   435    1
  1123  3086  3009    1
  1124  2228  2151    1
  1125  1799  1722    1
  1126    83     6    1
  1127   941   864    1
  1128   995   990    1
  1129  1424  1419    1
  1130  3140  3135    1
  1131  1853  1848    1
  1132   137   132    1
  1133  3569  3564    1
  1134  2711  2706    1
  1135  2282  2277    1
  1136   566   561    1
  1137  1727  1778    1
  1138   440   491    1
  1139  1298  1349    1
  1140  2585  2636    1
  1141    11    62    1
  1142   869   920    1
  1143  2156  2207    1
  1144  3014  3065    1
  1145  3443  3494    1
  1146  3016  3068    1
  1147  2587  2639    1
  1148  3445  3497    1
  1149    13    65    1
  1150   871   923    1
  1151  1300  1352    1
  1152  2158  2210    1
  1153  1729  1781    1
  1154   442   494    1
  1155     9    60    1
  1156  3441  3492    1
  1157   438   489    1
  1158  3012  3063    1
  1159  2583  2634    1
  1160  2154  2205    1
  1161  1296  1347    1
  1162   867   918    1
  1163  1725  1776    1
  1164  3572  3571    1
  1165   140   139    1
  1166  2285  2284    1
  1167  1856  1855    1
  1168  3143  3142    1
  1169  2714  2713    1
  1170   998   997    1
  1171  1427  1426    1
  1172   569   568    1
  1173  1419  1426    1
  1174  1419  1420    1
  1175  2706  2713    1
  1176  2706  2707    1
  1177  1848  1855    1
  1178  1848  1849    1
  1179  3135  3142    1
  1180  3135  3136    1
  1181   561   568    1
  1182   561   562    1
  1183  3564  3571    1
  1184  3564  3565    1
  1185  2277  2284    1
  1186  2277  2278    1
  1187   132   139    1
  1188   132   133    1
  1189   990   997    1
  1190   990   991    1
  1191  2575  2670    1
  1192  2575  2672    1
  1193  1717  1812    1
  1194  1717  1814    1
  1195  1288  1383    1
  1196  1288  1385    1
  1197  3004  3099    1
  1198  3004  3101    1
  1199  2146  2241    1
  1200  2146  2243    1
  1201     1    96    1
  1202     1    98    1
  1203  3433  3528    1
  1204  3433  3530    1
  1205   430   525    1
  1206   430   527    1
  1207   859   954    1
  1208   859   956    1
  1209     6    91    1
  1210     6    89    1
  1211     6   244    1
  1212   864   949    1
  1213   864   947    1
  1214   864  1102    1
  1215  3438  3523    1
  1216  3438  3521    1
  1217  3438  3676    1
  1218  2580  2665    1
  1219  2580  2663    1
  1220  2580  2818    1
  1221  3009  3094    1
  1222  3009  3092    1
  1223  3009  3247    1
  1224  1293  1378    1
  1225  1293  1376    1
  1226  1293  1531    1
  1227   435   520    1
  1228   435   518    1
  1229   435   673    1
  1230  2151  2236    1
  1231  2151  2234    1
  1232  2151  2389    1
  1233  1722  1807    1
  1234  1722  1805    1
  1235  1722  1960    1
  1236  1416  1422    1
  1237  1416  1414    2
  1238  1845  1851    1
  1239  1845  1843    2
  1240   129   135    1
  1241   129   127    2
  1242  3132  3138    1
  1243  3132  3130    2
  1244   987   993    1
  1245   987   985    2
  1246   558   564    1
  1247   558   556    2
  1248  3561  3567    1
  1249  3561  3559    2
  1250  2274  2280    1
  1251  2274  2272    2
  1252  2703  2709    1
  1253  2703  2701    2
  1254   491   624    1
  1255  3494  2208   ar
  1256  3494  3627   ar
  1257  3065  1779   ar
  1258  3065  3198   ar
  1259  1349    63   ar
  1260  1349  1482   ar
  1261   920  1053    1
  1262  2636  1350   ar
  1263  2636  2769   ar
  1264    62   195    1
  1265  2207   921   ar
  1266  2207  2340   ar
  1267  1778   492   ar
  1268  1778  1911   ar
  1269  3066  3197    1
  1270    63   194   ar
  1271  2208  2339   ar
  1272  1779  1910   ar
  1273   921  1052   ar
  1274  3495  3626    1
  1275  2637  2768    1
  1276   492   623   ar
  1277  1350  1481   ar
  1278   997   993    1
  1279   997  1001    1
  1280   139   135    1
  1281   139   143    1
  1282  3571  3567    1
  1283  3571  3575    1
  1284  2284  2280    1
  1285  2284  2288    1
  1286  3142  3138    1
  1287  3142  3146    1
  1288   568   564    1
  1289   568   572    1
  1290  1855  1851    1
  1291  1855  1859    1
  1292  1426  1422    1
  1293  1426  1430    1
  1294  2713  2709    1
  1295  2713  2717    1
  1296   525   630    1
  1297   954  1059    1
  1298  1383  1488    1
  1299  3099  3204    1
  1300  2670  2775    1
  1301    96   201    1
  1302  1812  1917    1
  1303  2241  2346    1
  1304  3528  3633    1
  1305  3492  3625    1
  1306  3063  3497   ar
  1307  3063  3196   ar
  1308   489   923   ar
  1309   489   622   ar
  1310    60   494   ar
  1311    60   193   ar
  1312  2205  2338    1
  1313  2634  3068   ar
  1314  2634  2767   ar
  1315   918  1051    1
  1316  1776  2210   ar
  1317  1776  1909   ar
  1318  1347  1781   ar
  1319  1347  1480   ar
  1320  2210  2337   ar
  1321  1352  1479    1
  1322   923  1050   ar
  1323  2639  2766    1
  1324  1781  1908   ar
  1325    65   192    1
  1326   494   621   ar
  1327  3068  3195   ar
  1328  3497  3624   ar
  1329  3094  3203    1
  1330    91   200    1
  1331   520   629    1
  1332  2665  2774    1
  1333  1378  1487    1
  1334  3523  3632    1
  1335  2236  2345    1
  1336   949  1058    1
  1337  1807  1916    1
  1338  1376  1485    1
  1339  3521  3630    1
  1340  2234  2343    1
  1341   947  1056    1
  1342   518   627    1
  1343    89   198    1
  1344  3092  3201    1
  1345  2663  2772    1
  1346  1805  1914    1
  1347  2672  2773    1
  1348    98   199    1
  1349  1385  1486    1
  1350   527   628    1
  1351  3101  3202    1
  1352  3530  3631    1
  1353  2243  2344    1
  1354  1814  1915    1
  1355   956  1057    1
  1356  2709  2712    1
  1357  3567  3570    1
  1358   135   138    1
  1359  2280  2283    1
  1360   993   996    1
  1361  3138  3141    1
  1362   564   567    1
  1363  1851  1854    1
  1364  1422  1425    1
  1365  2699  2701    1
  1366  3128  3130    1
  1367   983   985    1
  1368  2270  2272    1
  1369  3557  3559    1
  1370   554   556    1
  1371   125   127    1
  1372  1412  1414    1
  1373  1841  1843    1
  1374   127   131    1
  1375  2701  2705    1
  1376  2272  2276    1
  1377  3559  3563    1
  1378   985   989    1
  1379   556   560    1
  1380  1414  1418    1
  1381  3130  3134    1
  1382  1843  1847    1
  1383  2303  2390    1
  1384   587   674    1
  1385  1016  1103    1
  1386  3590  3677    1
  1387  1874  1961    1
  1388  3161  3248    1
  1389   158   245    1
  1390  2732  2819    1
  1391  1445  1532    1
  1392  2340  2346    1
  1393  2340  2352   ar
  1394  1053  1059    2
  1395  1053  1065    1
  1396  1482  1488    1
  1397  1482  1494   ar
  1398   624   630    2
  1399   624   636    1
  1400  1911  1917    1
  1401  1911  1923   ar
  1402  3627  3633    1
  1403  3627  3639   ar
  1404  3198  3204    1
  1405  3198  3210   ar
  1406  2769  2775    1
  1407  2769  2781   ar
  1408   195   201    2
  1409   195   207    1
  1410  1481  1487    1
  1411  1481  1491   ar
  1412  3197  3203    2
  1413  3197  3207    1
  1414  2768  2774    2
  1415  2768  2778    1
  1416   623   629    1
  1417   623   633   ar
  1418  2339  2345    1
  1419  2339  2349   ar
  1420   194   200    1
  1421   194   204   ar
  1422  1910  1916    1
  1423  1910  1920   ar
  1424  3626  3632    2
  1425  3626  3636    1
  1426  1052  1058    1
  1427  1052  1062   ar
  1428   245   148    1
  1429   674   577    1
  1430  2390  2293    1
  1431  1532  1435    1
  1432  3248  3151    1
  1433  3677  3580    1
  1434  2819  2722    1
  1435  1103  1006    1
  1436  1961  1864    1
  1437  2346  2380    1
  1438   201   235    1
  1439  1917  1951    1
  1440  3633  3667    1
  1441   630   664    1
  1442  3204  3238    1
  1443  1059  1093    1
  1444  2775  2809    1
  1445  1488  1522    1
  1446  2774  2812    1
  1447   629   667    1
  1448  1058  1096    1
  1449  3203  3241    1
  1450  3632  3670    1
  1451  1916  1954    1
  1452   200   238    1
  1453  2345  2383    1
  1454  1487  1525    1
  1455  3630  3624    1
  1456  3630  3672    1
  1457  3201  3195    1
  1458  3201  3243    1
  1459  1914  1908    1
  1460  1914  1956    1
  1461  2343  2337    1
  1462  2343  2385    1
  1463   198   192    2
  1464   198   240    1
  1465   627   621    1
  1466   627   669    1
  1467  1485  1479    2
  1468  1485  1527    1
  1469  2772  2766    2
  1470  2772  2814    1
  1471  1056  1050    1
  1472  1056  1098    1
  1473  2344  2338    2
  1474  2344  2378    1
  1475  1915  1909    1
  1476  1915  1949    1
  1477  3202  3196    1
  1478  3202  3236    1
  1479  3631  3625    2
  1480  3631  3665    1
  1481   199   193    1
  1482   199   233    1
  1483  1057  1051    2
  1484  1057  1091    1
  1485  2773  2767    1
  1486  2773  2807    1
  1487  1486  1480    1
  1488  1486  1520    1
  1489   628   622    1
  1490   628   662    1
  1491   192   202    1
  1492  1050  1060   ar
  1493  3624  3634   ar
  1494  3195  3205   ar
  1495  1908  1918   ar
  1496  1479  1489    1
  1497  2337  2347   ar
  1498   621   631   ar
  1499  2766  2776    1
  1500  3625  3641    1
  1501  2767  2783   ar
  1502   622   638   ar
  1503   193   209   ar
  1504  2338  2354    1
  1505  1909  1925   ar
  1506  1480  1496   ar
  1507  3196  3212   ar
  1508  1051  1067    1
  1509  1960  1875    1
  1510  3676  3591    1
  1511  3247  3162    1
  1512  2818  2733    1
  1513   673   588    1
  1514  1531  1446    1
  1515   244   159    1
  1516  2389  2304    1
  1517  1102  1017    1
  1518  1425  1418    1
  1519  1425  1429    1
  1520   138   131    1
  1521   138   142    1
  1522  2712  2705    1
  1523  2712  2716    1
  1524   996   989    1
  1525   996  1000    1
  1526  3570  3563    1
  1527  3570  3574    1
  1528  2283  2276    1
  1529  2283  2287    1
  1530  1854  1847    1
  1531  1854  1858    1
  1532   567   560    1
  1533   567   571    1
  1534  3141  3134    1
  1535  3141  3145    1
  1536   560   563    1
  1537  2276  2279    1
  1538  2705  2708    1
  1539  1847  1850    1
  1540  3134  3137    1
  1541  3563  3566    1
  1542   989   992    1
  1543   131   134    1
  1544  1418  1421    1
  1545   664   577    1
  1546  3238  3151    1
  1547  1951  1864    1
  1548  1522  1435    1
  1549   235   148    1
  1550  3667  3580    1
  1551  2380  2293    1
  1552  2809  2722    1
  1553  1093  1006    1
  1554  1923   633   ar
  1555  1923  1873    1
  1556  3639  2349   ar
  1557  3639  3589    1
  1558   207   157    1
  1559  1494   204   ar
  1560  1494  1444    1
  1561  2352  1062   ar
  1562  2352  2302    1
  1563  2781  1491   ar
  1564  2781  2731    1
  1565  3210  1920   ar
  1566  3210  3160    1
  1567   636   586    1
  1568  1065  1015    1
  1569  2812  2719    1
  1570  3241  3148    1
  1571  2383  2290    1
  1572  1525  1432    1
  1573   667   574    1
  1574  1096  1003    1
  1575  1954  1861    1
  1576  3670  3577    1
  1577   238   145    1
  1578  2807  2722    1
  1579   233   148    1
  1580  1520  1435    1
  1581   662   577    1
  1582  1949  1864    1
  1583  1091  1006    1
  1584  3665  3580    1
  1585  2378  2293    1
  1586  3236  3151    1
  1587  3672  3577    1
  1588  3243  3148    1
  1589   669   574    1
  1590  1527  1432    1
  1591  2385  2290    1
  1592   240   145    1
  1593  1098  1003    1
  1594  2814  2719    1
  1595  1956  1861    1
  1596   633   584    1
  1597  1920  1871    1
  1598  2349  2300    1
  1599  2778  2729    1
  1600  3636  3587    1
  1601  1062  1013    1
  1602  1491  1442    1
  1603   204   155    1
  1604  3207  3158    1
  1605  1918  1496   ar
  1606  1918  1869    1
  1607   631   209   ar
  1608   631   582    1
  1609  3634  3212   ar
  1610  3634  3585    1
  1611  2347  1925   ar
  1612  2347  2298    1
  1613  3205  2783   ar
  1614  3205  3156    1
  1615   202   153    1
  1616  1489  1440    1
  1617  2776  2727    1
  1618  1060   638   ar
  1619  1060  1011    1
  1620  1067  1068    1
  1621   209   210    1
  1622  1925  1926    1
  1623  2354  2355    1
  1624  1496  1497    1
  1625  3212  3213    1
  1626   638   639    1
  1627  2783  2784    1
  1628  3641  3642    1
  1629  1435  1516    1
  1630  1435  1514    1
  1631  1435  1504    1
  1632  1006  1087    1
  1633  1006  1085    1
  1634  1006  1075    1
  1635   577   658    1
  1636   577   656    1
  1637   577   646    1
  1638  2293  2374    1
  1639  2293  2372    1
  1640  2293  2362    1
  1641  3151  3232    1
  1642  3151  3230    1
  1643  3151  3220    1
  1644  1864  1945    1
  1645  1864  1943    1
  1646  1864  1933    1
  1647  3580  3661    1
  1648  3580  3659    1
  1649  3580  3649    1
  1650  2722  2803    1
  1651  2722  2801    1
  1652  2722  2791    1
  1653   148   229    1
  1654   148   227    1
  1655   148   217    1
  1656   145   222    1
  1657   145   224    1
  1658   145   220    1
  1659  1432  1509    1
  1660  1432  1511    1
  1661  1432  1507    1
  1662  2719  2796    1
  1663  2719  2798    1
  1664  2719  2794    1
  1665  3148  3225    1
  1666  3148  3227    1
  1667  3148  3223    1
  1668  1861  1938    1
  1669  1861  1940    1
  1670  1861  1936    1
  1671  1003  1080    1
  1672  1003  1082    1
  1673  1003  1078    1
  1674  2290  2367    1
  1675  2290  2369    1
  1676  2290  2365    1
  1677  3577  3654    1
  1678  3577  3656    1
  1679  3577  3652    1
  1680   574   651    1
  1681   574   653    1
  1682   574   649    1
  1683   130   134    1
  1684   988   992    1
  1685  1846  1850    1
  1686  2704  2708    1
  1687  2275  2279    1
  1688  1417  1421    1
  1689  3133  3137    1
  1690  3562  3566    1
  1691   559   563    1
  1692   134   136    1
  1693   134   141    1
  1694  2708  2710    1
  1695  2708  2715    1
  1696  1421  1423    1
  1697  1421  1428    1
  1698  3137  3139    1
  1699  3137  3144    1
  1700  1850  1852    1
  1701  1850  1857    1
  1702  2279  2281    1
  1703  2279  2286    1
  1704   563   565    1
  1705   563   570    1
  1706  3566  3568    1
  1707  3566  3573    1
  1708   992   994    1
  1709   992   999    1
  1710  1455  1529    1
  1711  3171  3245    1
  1712   597   671    1
  1713  1884  1958    1
  1714  2742  2816    1
  1715  1026  1100    1
  1716  2313  2387    1
  1717  3600  3674    1
  1718   168   242    1
  1719   229   147    1
  1720  3232  3150    1
  1721  1516  1434    1
  1722  1087  1005    1
  1723  3661  3579    1
  1724  1945  1863    1
  1725  2374  2292    1
  1726  2803  2721    1
  1727   658   576    1
  1728  1938  1867    1
  1729  3654  3583    1
  1730  1509  1438    1
  1731   222   151    1
  1732  1080  1009    1
  1733  2796  2725    1
  1734  2367  2296    1
  1735  3225  3154    1
  1736   651   580    1
  1737  2355  2311    1
  1738   210   166    1
  1739   210   596    1
  1740  3213  3169    1
  1741  3213  3599    1
  1742  1068  1024    1
  1743  2784  2740    1
  1744  2784  3170    1
  1745  3642  3598    1
  1746  1926  1882    1
  1747  1926  2312    1
  1748   639   595    1
  1749   639  1025    1
  1750  1497  1453    1
  1751  1497  1883    1
  1752  1514  1434    1
  1753  3230  3150    1
  1754  1085  1005    1
  1755   227   147    1
  1756  1943  1863    1
  1757   656   576    1
  1758  2372  2292    1
  1759  3659  3579    1
  1760  2801  2721    1
  1761   653   580    1
  1762  1511  1438    1
  1763  1940  1867    1
  1764   224   151    1
  1765  2798  2725    1
  1766  2369  2296    1
  1767  3656  3583    1
  1768  1082  1009    1
  1769  3227  3154    1
  1770  1529  1438    1
  1771  2387  2296    1
  1772   242   151    1
  1773  3245  3154    1
  1774  1958  1867    1
  1775  1100  1009    1
  1776   671   580    1
  1777  3674  3583    1
  1778  2816  2725    1
  1779  3649  3611    1
  1780  1933  1895    1
  1781  1075  1037    1
  1782  2362  2324    1
  1783  2791  2753    1
  1784  1504  1466    1
  1785   217   179    1
  1786   646   608    1
  1787  3220  3182    1
  1788  1936  1892    1
  1789  2794  2750    1
  1790   220   176    1
  1791  3223  3179    1
  1792  1078  1034    1
  1793  2365  2321    1
  1794   649   605    1
  1795  1507  1463    1
  1796  3652  3608    1
  1797  3579  3650    1
  1798  3579  3669    1
  1799  1863  1934    1
  1800  1863  1953    1
  1801   576   647    1
  1802   576   666    1
  1803  1434  1505    1
  1804  1434  1524    1
  1805  2292  2363    1
  1806  2292  2382    1
  1807   147   218    1
  1808   147   237    1
  1809  1005  1076    1
  1810  1005  1095    1
  1811  3150  3221    1
  1812  3150  3240    1
  1813  2721  2792    1
  1814  2721  2811    1
  1815  2296  2359    1
  1816  2296  2375    1
  1817   151   214    1
  1818   151   230    1
  1819  3583  3646    1
  1820  3583  3662    1
  1821  1009  1072    1
  1822  1009  1088    1
  1823  2725  2788    1
  1824  2725  2804    1
  1825  3154  3217    1
  1826  3154  3233    1
  1827   580   643    1
  1828   580   659    1
  1829  1867  1930    1
  1830  1867  1946    1
  1831  1438  1501    1
  1832  1438  1517    1
  1833   165   187    1
  1834  3597  3619    1
  1835   594   616    1
  1836  2310  2332    1
  1837  1452  1474    1
  1838  1881  1903    1
  1839  3168  3190    1
  1840  2739  2761    1
  1841  1023  1045    1
  1842  3257  3261    1
  1843   683   687    1
  1844   254   258    1
  1845  2828  2832    1
  1846  1541  1545    1
  1847  1112  1116    1
  1848  1970  1974    1
  1849  3686  3690    1
  1850  2399  2403    1
  1851  1021  1048    1
  1852  1450  1477    1
  1853  2308  2335    1
  1854  1879  1906    1
  1855  3166  3193    1
  1856  3595  3622    1
  1857   592   619    1
  1858  2737  2764    1
  1859   163   190    1
  1860  2324  2363    1
  1861  2324  2328    1
  1862  1895  1934    1
  1863  1895  1899    1
  1864  3182  3221    1
  1865  3182  3186    1
  1866  1466  1505    1
  1867  1466  1470    1
  1868  2753  2792    1
  1869  2753  2757    1
  1870  1037  1076    1
  1871  1037  1041    1
  1872  3611  3650    1
  1873  3611  3615    1
  1874   179   218    1
  1875   179   183    1
  1876   608   647    1
  1877   608   612    1
  1878  3687  2409    1
  1879  2400  1122    1
  1880  3258  1980    1
  1881  1542   264    1
  1882  2829  1551    1
  1883  1971   693    1
  1884   176   214    1
  1885   176   180    1
  1886  3608  3646    1
  1887  3608  3612    2
  1888  1034  1072    1
  1889  1034  1038    1
  1890  1892  1930    1
  1891  1892  1896    1
  1892   605   643    1
  1893   605   609    1
  1894  2321  2359    1
  1895  2321  2325    1
  1896  3179  3217    1
  1897  3179  3183    2
  1898  1463  1501    1
  1899  1463  1467    1
  1900  2750  2788    1
  1901  2750  2754    2
  1902  1116  1122    1
  1903  1116  1120    2
  1904   258   264   ar
  1905   258   262   ar
  1906  2403  2409    1
  1907  2403  2407    2
  1908  2832  2838    1
  1909  2832  2836    2
  1910   687   693   ar
  1911   687   691   ar
  1912  1974  1980   ar
  1913  1974  1978   ar
  1914  3690  3696    1
  1915  3690  3694    2
  1916  1545  1551   ar
  1917  1545  1549   ar
  1918  3261  3267    1
  1919  3261  3265    2
  1920  2822  2836    1
  1921  3680  3694    1
  1922  1535  1549    1
  1923  1964  1978    1
  1924   677   691    1
  1925   248   262    1
  1926  2393  2407    1
  1927  3251  3265    1
  1928  1106  1120    1
  1929  2811  2770    1
  1930   237   196    1
  1931   666   625    1
  1932  3240  3199    1
  1933  3669  3628    1
  1934  1095  1054    1
  1935  2382  2341    1
  1936  1953  1912    1
  1937  1524  1483    1
  1938  3190  3186   ar
  1939  3190  3621   ar
  1940  3619  3615    1
  1941   616   612   ar
  1942   616  1047   ar
  1943  1474  1470   ar
  1944  1474  1905   ar
  1945  1903  1899   ar
  1946  1903  2334   ar
  1947  2761  2757   ar
  1948  2761  3192   ar
  1949   187   183   ar
  1950   187   618   ar
  1951  2332  2328    1
  1952  1045  1041    1
  1953   693  2408   ar
  1954   264  1979   ar
  1955  1980  3695   ar
  1956  1551  3266   ar
  1957  2375  2341    1
  1958  2804  2770    1
  1959   230   196    1
  1960   659   625    1
  1961  1946  1912    1
  1962  3662  3628    1
  1963  3233  3199    1
  1964  1088  1054    1
  1965  1517  1483    1
  1966  1048  1038   ar
  1967  1048  2330   ar
  1968  1906  1896   ar
  1969  1906  3188   ar
  1970   619   609   ar
  1971   619  1901   ar
  1972  1477  1467   ar
  1973  1477  2759   ar
  1974  3622  3612    1
  1975   190   180   ar
  1976   190  1472   ar
  1977  2335  2325   ar
  1978  2335  3617   ar
  1979  2764  2754    1
  1980  3193  3183    1
  1981   691  2410   ar
  1982  1549  3268   ar
  1983  1978  3697   ar
  1984   262  1981   ar
  1985  3615  3620    2
  1986   612   617   ar
  1987  3186  3191   ar
  1988  1470  1475   ar
  1989  1041  1046    2
  1990  1899  1904   ar
  1991   183   188   ar
  1992  2328  2333    2
  1993  2757  2762   ar
  1994  1912  1972    1
  1995  1483  1543    1
  1996  3199  3259    1
  1997  3628  3688    1
  1998  2770  2830    1
  1999   196   256    1
  2000  2341  2401    1
  2001  1054  1114    1
  2002   625   685    1
  2003  1880  1901    1
  2004  1022  1043    1
  2005  2738  2759    1
  2006  3167  3188    1
  2007  1451  1472    1
  2008   164   185    1
  2009  2309  2330    1
  2010   593   614    1
  2011  3596  3617    1
  2012  3612  3616    1
  2013   609   613   ar
  2014  3183  3187    1
  2015  1467  1471   ar
  2016  1038  1042   ar
  2017  1896  1900   ar
  2018  2754  2758    1
  2019   180   184   ar
  2020  2325  2329   ar
  2021  1018  1047    1
  2022  1447  1476    1
  2023  2305  2334    1
  2024  1876  1905    1
  2025  3592  3621    1
  2026  3163  3192    1
  2027   160   189    1
  2028  2734  2763    1
  2029   589   618    1
  2030  1979  1963    1
  2031  1979  1975   ar
  2032  1121  1105    1
  2033  1121  1117    1
  2034  3266  3250    1
  2035  3266  3262   ar
  2036  3695  3679    1
  2037  3695  3691   ar
  2038  2837  2821    1
  2039  2837  2833    1
  2040  2408  2392    1
  2041  2408  2404   ar
  2042   692   676    1
  2043   692   688    1
  2044  1550  1534    1
  2045  1550  1546    1
  2046   263   247    1
  2047   263   259    1
  2048  1472  1468   ar
  2049   614   610    1
  2050  1901  1897   ar
  2051  3188  3184   ar
  2052  1043  1039    1
  2053  2759  2755   ar
  2054   185   181    1
  2055  2330  2326   ar
  2056  3617  3613   ar
  2057  3621  3614   ar
  2058  1047  1040   ar
  2059   618   611   ar
  2060  2334  2327   ar
  2061  1476  1469    1
  2062   189   182    1
  2063  2763  2756    1
  2064  1905  1898   ar
  2065  3192  3185   ar
  2066  2839  2833    1
  2067  2839  2825    1
  2068  3268  3262   ar
  2069  3268  3254    1
  2070   694   688    1
  2071   694   680    1
  2072   265   259    1
  2073   265   251    1
  2074  2410  2404   ar
  2075  2410  2396    1
  2076  1552  1546    1
  2077  1552  1538    1
  2078  3697  3691   ar
  2079  3697  3683    1
  2080  1123  1117    1
  2081  1123  1109    1
  2082  1981  1975   ar
  2083  1981  1967    1
  2084  3262  3200    1
  2085   259   197    2
  2086  3691  3629    1
  2087  1117  1055    2
  2088  2404  2342    1
  2089  2833  2771    2
  2090  1546  1484    2
  2091  1975  1913    1
  2092   688   626    2
  2093  1543  1547   ar
  2094  1543  1553   ar
  2095  1114  1118   ar
  2096  1114  1124   ar
  2097  3688  3692   ar
  2098  3688  3698   ar
  2099  2830  2834   ar
  2100  2830  2840   ar
  2101   256   260   ar
  2102   256   266   ar
  2103  1972  1976   ar
  2104  1972  1982   ar
  2105  2401  2405   ar
  2106  2401  2411   ar
  2107   685   689   ar
  2108   685   695   ar
  2109  3259  3263   ar
  2110  3259  3269   ar
  2111  3256  3263    1
  2112   682   689    1
  2113  1540  1547    1
  2114  3685  3692    1
  2115  1111  1118    1
  2116  2398  2405    1
  2117  1969  1976    1
  2118   253   260    1
  2119  2827  2834    1
  2120  2394  2411    1
  2121   249   266    1
  2122  1536  1553    1
  2123   678   695    1
  2124  1107  1124    1
  2125  1965  1982    1
  2126  3252  3269    1
  2127  3681  3698    1
  2128  2823  2840    1
  2129   617   590    1
  2130   617  1044   ar
  2131  3620  3593    1
  2132  2333  2306    1
  2133  2762  2735    1
  2134  2762  3189   ar
  2135  1904  1877    1
  2136  1904  2331   ar
  2137  3191  3164    1
  2138  3191  3618   ar
  2139  1046  1019    1
  2140   188   161    1
  2141   188   615   ar
  2142  1475  1448    1
  2143  1475  1902   ar
  2144  1547  1554   ar
  2145   260   267   ar
  2146  1118  1125   ar
  2147  2405  2412   ar
  2148  2834  2841   ar
  2149   689   696   ar
  2150  3692  3699   ar
  2151  1976  1983   ar
  2152  3263  3270   ar
  2153   602   641    1
  2154  2747  2786    1
  2155   173   212    1
  2156  1460  1499    1
  2157  2318  2357    1
  2158  1889  1928    1
  2159  1031  1070    1
  2160  3176  3215    1
  2161  3605  3644    1
  2162   695   690   ar
  2163  3698  3693   ar
  2164  3269  3264   ar
  2165  2840  2835   ar
  2166  2411  2406   ar
  2167  1982  1977   ar
  2168  1124  1119   ar
  2169  1553  1548   ar
  2170   266   261   ar
  2171  3616  3644    1
  2172   184   212    1
  2173   184  1478   ar
  2174  2329  2357    1
  2175  2329  3623   ar
  2176   613   641    1
  2177   613  1907   ar
  2178  1042  1070    1
  2179  1042  2336   ar
  2180  1471  1499    1
  2181  1471  2765   ar
  2182  1900  1928    1
  2183  1900  3194   ar
  2184  3187  3215    1
  2185  2758  2786    1
  2186   181   191    2
  2187   181   177    1
  2188  2326  2336   ar
  2189  2326  2322    1
  2190  2755  2765   ar
  2191  2755  2751    1
  2192  1897  1907   ar
  2193  1897  1893    1
  2194  1039  1049    2
  2195  1039  1035    1
  2196  3613  3623   ar
  2197  3613  3609    1
  2198   610   620    2
  2199   610   606    1
  2200  1468  1478   ar
  2201  1468  1464    1
  2202  3184  3194   ar
  2203  3184  3180    1
  2204  1913  1947    1
  2205  1913  1952    1
  2206   626   660    1
  2207   626   665    1
  2208  1055  1089    1
  2209  1055  1094    1
  2210  3629  3663    1
  2211  3629  3668    1
  2212  1484  1518    1
  2213  1484  1523    1
  2214  3200  3234    1
  2215  3200  3239    1
  2216  2771  2805    1
  2217  2771  2810    1
  2218  2342  2376    1
  2219  2342  2381    1
  2220   197   231    1
  2221   197   236    1
  2222  2327  2331   ar
  2223  2327  2323    1
  2224  1469  1473    2
  2225  1469  1465    1
  2226   182   186    2
  2227   182   178    1
  2228  3614  3618   ar
  2229  3614  3610    1
  2230  1040  1044   ar
  2231  1040  1036    1
  2232  2756  2760    2
  2233  2756  2752    1
  2234  3185  3189   ar
  2235  3185  3181    1
  2236  1898  1902   ar
  2237  1898  1894    1
  2238   611   615   ar
  2239   611   607    1
  2240  3215  3175    1
  2241  1070  1030    1
  2242   641   601    1
  2243  1499  1459    1
  2244  1928  1888    1
  2245  2786  2746    1
  2246  2357  2317    1
  2247  3644  3604    1
  2248   212   172    1
  2249  2841  2824    1
  2250  2841  2831   ar
  2251  1554  1537    1
  2252  1554  1544   ar
  2253  1125  1108    1
  2254  1125  1115   ar
  2255  3699  3682    1
  2256  3699  3689   ar
  2257  1983  1966    1
  2258  1983  1973   ar
  2259  3270  3253    1
  2260  3270  3260   ar
  2261   696   679    1
  2262   696   686   ar
  2263  2412  2395    1
  2264  2412  2402   ar
  2265   267   250    1
  2266   267   257   ar
  2267  1947  1866    1
  2268   660   579    1
  2269  3234  3153    1
  2270   231   150    1
  2271  1089  1008    1
  2272  2376  2295    1
  2273  1518  1437    1
  2274  2805  2724    1
  2275  3663  3582    1
  2276   620   591    1
  2277  3194  3165    1
  2278   191   162    1
  2279  1907  1878    1
  2280  1478  1449    1
  2281  1049  1020    1
  2282  3623  3594    1
  2283  2336  2307    1
  2284  2765  2736    1
  2285   690   675    1
  2286   690   686   ar
  2287  3264  3249    1
  2288  3264  3260   ar
  2289  3693  3678    1
  2290  3693  3689   ar
  2291  1548  1533    1
  2292  1548  1544   ar
  2293  2406  2391    1
  2294  2406  2402   ar
  2295   261   246    1
  2296   261   257   ar
  2297  2835  2820    1
  2298  2835  2831   ar
  2299  1119  1104    1
  2300  1119  1115   ar
  2301  1977  1962    1
  2302  1977  1973   ar
  2303  2810  2720    1
  2304  1094  1004    1
  2305  1523  1433    1
  2306  3239  3149    1
  2307   665   575    1
  2308  2381  2291    1
  2309   236   146    1
  2310  3668  3578    1
  2311  1952  1862    1
  2312  3218  3180    1
  2313  3218  3153    1
  2314  2789  2751    1
  2315  2789  2724    1
  2316  2360  2322    1
  2317  2360  2295    1
  2318  3647  3609    1
  2319  3647  3582    1
  2320  1931  1893    1
  2321  1931  1866    1
  2322  1073  1035    1
  2323  1073  1008    1
  2324   644   606    1
  2325   644   579    1
  2326  1502  1464    1
  2327  1502  1437    1
  2328   215   177    1
  2329   215   150    1
  2330  1044  1071    1
  2331   186   213    1
  2332  2331  2358    1
  2333  3189  3216    1
  2334  1902  1929    1
  2335   615   642    1
  2336  1473  1500    1
  2337  2760  2787    1
  2338  3618  3645    1
  2339  2793  2752    1
  2340  2793  2720    1
  2341  1077  1036    1
  2342  1077  1004    1
  2343  2364  2323    1
  2344  2364  2291    1
  2345  3222  3181    1
  2346  3222  3149    1
  2347  1506  1465    1
  2348  1506  1433    1
  2349   219   178    1
  2350   219   146    1
  2351  3651  3610    1
  2352  3651  3578    1
  2353   648   607    1
  2354   648   575    1
  2355  1935  1894    1
  2356  1935  1862    1
  2357  1973  1968    1
  2358   686   681    1
  2359  3689  3684    1
  2360  2402  2397    1
  2361  3260  3255    1
  2362   257   252    1
  2363  1544  1539    1
  2364  1115  1110    1
  2365  2831  2826    1
  2366  3609  3653    1
  2367  1464  1508    1
  2368  1893  1937    1
  2369   606   650    1
  2370   177   221    1
  2371  3180  3224    1
  2372  2322  2366    1
  2373  2751  2795    1
  2374  1035  1079    1
  2375  3181  3219    1
  2376  2752  2790    1
  2377   607   645    1
  2378  3610  3648    1
  2379  1036  1074    1
  2380  1465  1503    1
  2381   178   216    1
  2382  2323  2361    1
  2383  1894  1932    1
  2384  2787  2748    1
  2385  2787  2749    1
  2386   213   174    1
  2387   213   175    1
  2388  3216  3177    1
  2389  3216  3178    1
  2390  3645  3606    1
  2391  3645  3607    1
  2392  1929  1890    1
  2393  1929  1891    1
  2394   642   603    1
  2395   642   604    1
  2396  1500  1461    1
  2397  1500  1462    1
  2398  1071  1032    1
  2399  1071  1033    1
  2400  2358  2319    1
  2401  2358  2320    1
  2402  3153  3246    1
  2403  3153  3226    1
  2404  3153  3228    1
  2405  2724  2817    1
  2406  2724  2797    1
  2407  2724  2799    1
  2408  1437  1530    1
  2409  1437  1510    1
  2410  1437  1512    1
  2411   579   672    1
  2412   579   652    1
  2413   579   654    1
  2414   150   243    1
  2415   150   223    1
  2416   150   225    1
  2417  2295  2388    1
  2418  2295  2368    1
  2419  2295  2370    1
  2420  1008  1101    1
  2421  1008  1081    1
  2422  1008  1083    1
  2423  3582  3675    1
  2424  3582  3655    1
  2425  3582  3657    1
  2426  1866  1959    1
  2427  1866  1939    1
  2428  1866  1941    1
  2429   146   228    1
  2430   146   226    1
  2431   575   657    1
  2432   575   655    1
  2433  2291  2373    1
  2434  2291  2371    1
  2435  1862  1944    1
  2436  1862  1942    1
  2437  3149  3231    1
  2438  3149  3229    1
  2439  2720  2802    1
  2440  2720  2800    1
  2441  1433  1515    1
  2442  1433  1513    1
  2443  3578  3660    1
  2444  3578  3658    1
  2445  1004  1086    1
  2446  1004  1084    1
  2447  1937  1860    1
  2448   221   144    1
  2449  2795  2718    1
  2450  3653  3576    1
  2451   650   573    1
  2452  1079  1002    1
  2453  2366  2289    1
  2454  1508  1431    1
  2455  3224  3147    1
  2456   216   149    1
  2457   645   578    1
  2458  3648  3581    1
  2459  1932  1865    1
  2460  2790  2723    1
  2461  2361  2294    1
  2462  3219  3152    1
  2463  1503  1436    1
  2464  1074  1007    1
  2465  1886  1927    1
  2466  3173  3214    1
  2467   170   211    1
  2468  2744  2785    1
  2469  2315  2356    1
  2470  3602  3643    1
  2471  1457  1498    1
  2472  1028  1069    1
  2473   599   640    1
  2474  1959  1885    1
  2475   672   598    1
  2476  3675  3601    1
  2477   243   169    1
  2478  3246  3172    1
  2479  1530  1456    1
  2480  2817  2743    1
  2481  2388  2314    1
  2482  1101  1027    1
  2483  3226  3147    1
  2484  2797  2718    1
  2485   223   144    1
  2486  1081  1002    1
  2487  3655  3576    1
  2488   652   573    1
  2489  1510  1431    1
  2490  2368  2289    1
  2491  1939  1860    1
  2492  1515  1436    1
  2493  2373  2294    1
  2494  3231  3152    1
  2495  2802  2723    1
  2496  1086  1007    1
  2497   657   578    1
  2498   228   149    1
  2499  3660  3581    1
  2500  1944  1865    1
  2501  2845  2849    1
  2502  2416  2420    1
  2503  1558  1562    1
  2504   700   704    1
  2505   271   275    1
  2506  3274  3278    1
  2507  1987  1991    1
  2508  1129  1133    1
  2509  3703  3707    1
  2510  3174  3214    1
  2511  3603  3643    1
  2512   171   211    1
  2513  2745  2785    1
  2514  1029  1069    1
  2515  2316  2356    1
  2516  1458  1498    1
  2517  1887  1927    1
  2518   600   640    1
  2519  2785  2780    1
  2520  1927  1922    1
  2521  3643  3638    1
  2522   211   206    1
  2523  3214  3209    1
  2524   640   635    1
  2525  1069  1064    1
  2526  1498  1493    1
  2527  2356  2351    1
  2528  3228  3147    1
  2529  1512  1431    1
  2530   654   573    1
  2531  2799  2718    1
  2532  3657  3576    1
  2533  2370  2289    1
  2534  1941  1860    1
  2535  1083  1002    1
  2536   225   144    1
  2537  1985  1988    1
  2538   269   272    1
  2539  2843  2846    1
  2540  1556  1559    1
  2541  3701  3704    1
  2542   698   701    1
  2543  2414  2417    1
  2544  1127  1130    1
  2545  3272  3275    1
  2546  3229  3152    1
  2547  3658  3581    1
  2548  2800  2723    1
  2549  1513  1436    1
  2550  1942  1865    1
  2551   655   578    1
  2552  2371  2294    1
  2553  1084  1007    1
  2554   226   149    1
  2555  1567  1562    1
  2556  1138  1133    1
  2557  1996  1991    1
  2558  3712  3707    1
  2559  2425  2420    1
  2560  3283  3278    1
  2561   709   704    1
  2562  2854  2849    1
  2563   280   275    1
  2564  1870  1921    1
  2565   583   634    1
  2566  3157  3208    1
  2567  1012  1063    1
  2568  1441  1492    1
  2569  3586  3637    1
  2570  2728  2779    1
  2571   154   205    1
  2572  2299  2350    1
  2573   156   208    1
  2574  1872  1924    1
  2575  3588  3640    1
  2576  1014  1066    1
  2577  2301  2353    1
  2578  2730  2782    1
  2579  3159  3211    1
  2580  1443  1495    1
  2581   585   637    1
  2582   581   632    1
  2583  2297  2348    1
  2584  3155  3206    1
  2585  1868  1919    1
  2586  1439  1490    1
  2587  2726  2777    1
  2588   152   203    1
  2589  1010  1061    1
  2590  3584  3635    1
  2591  2857  2856    1
  2592  1141  1140    1
  2593   283   282    1
  2594  1570  1569    1
  2595  2428  2427    1
  2596  3715  3714    1
  2597  1999  1998    1
  2598   712   711    1
  2599  3286  3285    1
  2600  3278  3285    1
  2601  3278  3279    1
  2602  1991  1998    1
  2603  1991  1992    1
  2604   275   282    1
  2605   275   276    1
  2606  2420  2427    1
  2607  2420  2421    1
  2608  1133  1140    1
  2609  1133  1134    1
  2610  2849  2856    1
  2611  2849  2850    1
  2612  3707  3714    1
  2613  3707  3708    1
  2614  1562  1569    1
  2615  1562  1563    1
  2616   704   711    1
  2617   704   705    1
  2618   144   239    1
  2619   144   241    1
  2620  1431  1526    1
  2621  1431  1528    1
  2622  2718  2813    1
  2623  2718  2815    1
  2624  3147  3242    1
  2625  3147  3244    1
  2626  3576  3671    1
  2627  3576  3673    1
  2628  1860  1955    1
  2629  1860  1957    1
  2630  1002  1097    1
  2631  1002  1099    1
  2632   573   668    1
  2633   573   670    1
  2634  2289  2384    1
  2635  2289  2386    1
  2636  1007  1092    1
  2637  1007  1090    1
  2638  1007  1245    1
  2639   578   663    1
  2640   578   661    1
  2641   578   816    1
  2642  1865  1950    1
  2643  1865  1948    1
  2644  1865  2103    1
  2645  2294  2379    1
  2646  2294  2377    1
  2647  2294  2532    1
  2648  2723  2808    1
  2649  2723  2806    1
  2650  2723  2961    1
  2651  3581  3666    1
  2652  3581  3664    1
  2653  3581  3819    1
  2654  3152  3237    1
  2655  3152  3235    1
  2656  3152  3390    1
  2657  1436  1521    1
  2658  1436  1519    1
  2659  1436  1674    1
  2660   149   234    1
  2661   149   232    1
  2662   149   387    1
  2663   272   278    1
  2664   272   270    2
  2665  2846  2852    1
  2666  2846  2844    2
  2667  3704  3710    1
  2668  3704  3702    2
  2669  1988  1994    1
  2670  1988  1986    2
  2671  1130  1136    1
  2672  1130  1128    2
  2673  2417  2423    1
  2674  2417  2415    2
  2675  3275  3281    1
  2676  3275  3273    2
  2677  1559  1565    1
  2678  1559  1557    2
  2679   701   707    1
  2680   701   699    2
  2681   205   338    1
  2682  1921   635   ar
  2683  1921  2054   ar
  2684  3208  1922   ar
  2685  3208  3341   ar
  2686   634   767    1
  2687  3637  2351   ar
  2688  3637  3770   ar
  2689  2350  1064   ar
  2690  2350  2483   ar
  2691  2779  1493   ar
  2692  2779  2912   ar
  2693  1492   206   ar
  2694  1492  1625   ar
  2695  1063  1196    1
  2696  1922  2053   ar
  2697  2351  2482   ar
  2698  1493  1624   ar
  2699  1064  1195   ar
  2700  2780  2911    1
  2701  3638  3769    1
  2702   635   766   ar
  2703  3209  3340    1
  2704   206   337   ar
  2705  2856  2852    1
  2706  2856  2860    1
  2707  1140  1136    1
  2708  1140  1144    1
  2709  3714  3710    1
  2710  3714  3718    1
  2711  1569  1565    1
  2712  1569  1573    1
  2713  3285  3281    1
  2714  3285  3289    1
  2715  2427  2423    1
  2716  2427  2431    1
  2717   711   707    1
  2718   711   715    1
  2719  1998  1994    1
  2720  1998  2002    1
  2721   282   278    1
  2722   282   286    1
  2723  2384  2489    1
  2724   239   344    1
  2725  1097  1202    1
  2726   668   773    1
  2727  2813  2918    1
  2728  3671  3776    1
  2729  1955  2060    1
  2730  3242  3347    1
  2731  1526  1631    1
  2732  1061  1194    1
  2733  2348  2481    1
  2734   632  1066   ar
  2735   632   765   ar
  2736  1490  1924   ar
  2737  1490  1623   ar
  2738  2777  3211   ar
  2739  2777  2910   ar
  2740  3206  3640   ar
  2741  3206  3339   ar
  2742  1919  2353   ar
  2743  1919  2052   ar
  2744  3635  3768    1
  2745   203   637   ar
  2746   203   336   ar
  2747  3211  3338   ar
  2748  2353  2480   ar
  2749  1924  2051   ar
  2750  1495  1622    1
  2751   208   335    1
  2752  3640  3767   ar
  2753   637   764   ar
  2754  2782  2909    1
  2755  1066  1193   ar
  2756   234   343    1
  2757  2808  2917    1
  2758  2379  2488    1
  2759  1950  2059    1
  2760  1092  1201    1
  2761   663   772    1
  2762  3237  3346    1
  2763  3666  3775    1
  2764  1521  1630    1
  2765   232   341    1
  2766  2377  2486    1
  2767  3664  3773    1
  2768  1948  2057    1
  2769  3235  3344    1
  2770  1519  1628    1
  2771  1090  1199    1
  2772  2806  2915    1
  2773   661   770    1
  2774   670   771    1
  2775  1528  1629    1
  2776  3244  3345    1
  2777  1099  1200    1
  2778  2815  2916    1
  2779   241   342    1
  2780  2386  2487    1
  2781  1957  2058    1
  2782  3673  3774    1
  2783  1994  1997    1
  2784  2423  2426    1
  2785  3710  3713    1
  2786   278   281    1
  2787   707   710    1
  2788  2852  2855    1
  2789  1565  1568    1
  2790  1136  1139    1
  2791  3281  3284    1
  2792  2842  2844    1
  2793  1555  1557    1
  2794  2413  2415    1
  2795   697   699    1
  2796  1126  1128    1
  2797   268   270    1
  2798  3700  3702    1
  2799  1984  1986    1
  2800  3271  3273    1
  2801  3273  3277    1
  2802  1557  1561    1
  2803  1128  1132    1
  2804   270   274    1
  2805  2844  2848    1
  2806  3702  3706    1
  2807  1986  1990    1
  2808   699   703    1
  2809  2415  2419    1
  2810  2017  2104    1
  2811  3304  3391    1
  2812  2875  2962    1
  2813   730   817    1
  2814   301   388    1
  2815  1588  1675    1
  2816  1159  1246    1
  2817  3733  3820    1
  2818  2446  2533    1
  2819  1625  1631    1
  2820  1625  1637   ar
  2821  2912  2918    1
  2822  2912  2924   ar
  2823  1196  1202    2
  2824  1196  1208    1
  2825  3341  3347    1
  2826  3341  3353   ar
  2827  3770  3776    1
  2828  3770  3782   ar
  2829   767   773    2
  2830   767   779    1
  2831  2054  2060    1
  2832  2054  2066   ar
  2833  2483  2489    1
  2834  2483  2495   ar
  2835   338   344    2
  2836   338   350    1
  2837  3769  3775    2
  2838  3769  3779    1
  2839  2053  2059    1
  2840  2053  2063   ar
  2841  2911  2917    2
  2842  2911  2921    1
  2843  3340  3346    2
  2844  3340  3350    1
  2845  2482  2488    1
  2846  2482  2492   ar
  2847  1624  1630    1
  2848  1624  1634   ar
  2849   337   343    1
  2850   337   347   ar
  2851  1195  1201    1
  2852  1195  1205   ar
  2853   766   772    1
  2854   766   776   ar
  2855  2104  2007    1
  2856   817   720    1
  2857  2962  2865    1
  2858  2533  2436    1
  2859   388   291    1
  2860  3820  3723    1
  2861  1246  1149    1
  2862  1675  1578    1
  2863  3391  3294    1
  2864  1202  1236    1
  2865   344   378    1
  2866  1631  1665    1
  2867  2060  2094    1
  2868  3347  3381    1
  2869  3776  3810    1
  2870   773   807    1
  2871  2489  2523    1
  2872  2918  2952    1
  2873  2488  2526    1
  2874  3346  3384    1
  2875  1630  1668    1
  2876  3775  3813    1
  2877   772   810    1
  2878   343   381    1
  2879  1201  1239    1
  2880  2917  2955    1
  2881  2059  2097    1
  2882  2915  2909    2
  2883  2915  2957    1
  2884   770   764    1
  2885   770   812    1
  2886  3773  3767    1
  2887  3773  3815    1
  2888  2057  2051    1
  2889  2057  2099    1
  2890  3344  3338    1
  2891  3344  3386    1
  2892  1628  1622    2
  2893  1628  1670    1
  2894   341   335    2
  2895   341   383    1
  2896  2486  2480    1
  2897  2486  2528    1
  2898  1199  1193    1
  2899  1199  1241    1
  2900  3345  3339    1
  2901  3345  3379    1
  2902  3774  3768    2
  2903  3774  3808    1
  2904  2916  2910    1
  2905  2916  2950    1
  2906  2058  2052    1
  2907  2058  2092    1
  2908   342   336    1
  2909   342   376    1
  2910   771   765    1
  2911   771   805    1
  2912  1200  1194    2
  2913  1200  1234    1
  2914  2487  2481    2
  2915  2487  2521    1
  2916  1629  1623    1
  2917  1629  1663    1
  2918  3767  3777   ar
  2919   764   774   ar
  2920  1193  1203   ar
  2921  3338  3348   ar
  2922  1622  1632    1
  2923  2909  2919    1
  2924   335   345    1
  2925  2051  2061   ar
  2926  2480  2490   ar
  2927  2052  2068   ar
  2928  2481  2497    1
  2929  1194  1210    1
  2930   336   352   ar
  2931  2910  2926   ar
  2932  3768  3784    1
  2933  3339  3355   ar
  2934  1623  1639   ar
  2935   765   781   ar
  2936  3390  3305    1
  2937   816   731    1
  2938   387   302    1
  2939  3819  3734    1
  2940  2103  2018    1
  2941  2532  2447    1
  2942  1674  1589    1
  2943  2961  2876    1
  2944  1245  1160    1
  2945   710   703    1
  2946   710   714    1
  2947  1997  1990    1
  2948  1997  2001    1
  2949  1139  1132    1
  2950  1139  1143    1
  2951   281   274    1
  2952   281   285    1
  2953  2855  2848    1
  2954  2855  2859    1
  2955  3284  3277    1
  2956  3284  3288    1
  2957  1568  1561    1
  2958  1568  1572    1
  2959  3713  3706    1
  2960  3713  3717    1
  2961  2426  2419    1
  2962  2426  2430    1
  2963  2848  2851    1
  2964  3706  3709    1
  2965   703   706    1
  2966  1990  1993    1
  2967  1132  1135    1
  2968  1561  1564    1
  2969  3277  3280    1
  2970  2419  2422    1
  2971   274   277    1
  2972  3381  3294    1
  2973  2094  2007    1
  2974  1236  1149    1
  2975  3810  3723    1
  2976   378   291    1
  2977  1665  1578    1
  2978  2523  2436    1
  2979  2952  2865    1
  2980   807   720    1
  2981   779   729    1
  2982  1208  1158    1
  2983  3353  2063   ar
  2984  3353  3303    1
  2985  3782  2492   ar
  2986  3782  3732    1
  2987  1637   347   ar
  2988  1637  1587    1
  2989  2495  1205   ar
  2990  2495  2445    1
  2991  2924  1634   ar
  2992  2924  2874    1
  2993  2066   776   ar
  2994  2066  2016    1
  2995   350   300    1
  2996   810   717    1
  2997  2097  2004    1
  2998  3384  3291    1
  2999  1239  1146    1
  3000  3813  3720    1
  3001  2955  2862    1
  3002  2526  2433    1
  3003   381   288    1
  3004  1668  1575    1
  3005   376   291    1
  3006  2092  2007    1
  3007  1663  1578    1
  3008  2521  2436    1
  3009  2950  2865    1
  3010  3379  3294    1
  3011   805   720    1
  3012  1234  1149    1
  3013  3808  3723    1
  3014  3386  3291    1
  3015  1241  1146    1
  3016  3815  3720    1
  3017  2099  2004    1
  3018   812   717    1
  3019  2957  2862    1
  3020  1670  1575    1
  3021   383   288    1
  3022  2528  2433    1
  3023  1634  1585    1
  3024   347   298    1
  3025  2063  2014    1
  3026  2921  2872    1
  3027  3779  3730    1
  3028  1205  1156    1
  3029   776   727    1
  3030  2492  2443    1
  3031  3350  3301    1
  3032  1203   781   ar
  3033  1203  1154    1
  3034  2061  1639   ar
  3035  2061  2012    1
  3036  2490  2068   ar
  3037  2490  2441    1
  3038  3348  2926   ar
  3039  3348  3299    1
  3040  2919  2870    1
  3041  3777  3355   ar
  3042  3777  3728    1
  3043   345   296    1
  3044  1632  1583    1
  3045   774   352   ar
  3046   774   725    1
  3047  2926  2927    1
  3048  3784  3785    1
  3049   352   353    1
  3050   781   782    1
  3051  1639  1640    1
  3052  2068  2069    1
  3053  3355  3356    1
  3054  2497  2498    1
  3055  1210  1211    1
  3056  2865  2946    1
  3057  2865  2944    1
  3058  2865  2934    1
  3059   291   372    1
  3060   291   370    1
  3061   291   360    1
  3062  3723  3804    1
  3063  3723  3802    1
  3064  3723  3792    1
  3065  1149  1230    1
  3066  1149  1228    1
  3067  1149  1218    1
  3068   720   801    1
  3069   720   799    1
  3070   720   789    1
  3071  2436  2517    1
  3072  2436  2515    1
  3073  2436  2505    1
  3074  3294  3375    1
  3075  3294  3373    1
  3076  3294  3363    1
  3077  2007  2088    1
  3078  2007  2086    1
  3079  2007  2076    1
  3080  1578  1659    1
  3081  1578  1657    1
  3082  1578  1647    1
  3083  2862  2939    1
  3084  2862  2941    1
  3085  2862  2937    1
  3086  3720  3797    1
  3087  3720  3799    1
  3088  3720  3795    1
  3089  3291  3368    1
  3090  3291  3370    1
  3091  3291  3366    1
  3092  2004  2081    1
  3093  2004  2083    1
  3094  2004  2079    1
  3095  1146  1223    1
  3096  1146  1225    1
  3097  1146  1221    1
  3098   717   794    1
  3099   717   796    1
  3100   717   792    1
  3101   288   365    1
  3102   288   367    1
  3103   288   363    1
  3104  2433  2510    1
  3105  2433  2512    1
  3106  2433  2508    1
  3107  1575  1652    1
  3108  1575  1654    1
  3109  1575  1650    1
  3110   273   277    1
  3111  3705  3709    1
  3112  1989  1993    1
  3113  2418  2422    1
  3114  1560  1564    1
  3115  1131  1135    1
  3116  2847  2851    1
  3117   702   706    1
  3118  3276  3280    1
  3119  1564  1566    1
  3120  1564  1571    1
  3121  1135  1137    1
  3122  1135  1142    1
  3123  1993  1995    1
  3124  1993  2000    1
  3125  2851  2853    1
  3126  2851  2858    1
  3127  3280  3282    1
  3128  3280  3287    1
  3129   706   708    1
  3130   706   713    1
  3131   277   279    1
  3132   277   284    1
  3133  2422  2424    1
  3134  2422  2429    1
  3135  3709  3711    1
  3136  3709  3716    1
  3137  2027  2101    1
  3138  1169  1243    1
  3139   311   385    1
  3140  2456  2530    1
  3141  3743  3817    1
  3142   740   814    1
  3143  3314  3388    1
  3144  1598  1672    1
  3145  2885  2959    1
  3146  2088  2006    1
  3147   801   719    1
  3148  2946  2864    1
  3149  3375  3293    1
  3150   372   290    1
  3151  2517  2435    1
  3152  1230  1148    1
  3153  1659  1577    1
  3154  3804  3722    1
  3155  2081  2010    1
  3156  1652  1581    1
  3157  2510  2439    1
  3158  3368  3297    1
  3159  3797  3726    1
  3160  1223  1152    1
  3161  2939  2868    1
  3162   794   723    1
  3163   365   294    1
  3164  3356  3312    1
  3165  3356  3742    1
  3166  2498  2454    1
  3167  2069  2025    1
  3168  2069  2455    1
  3169  3785  3741    1
  3170  1640  1596    1
  3171  1640  2026    1
  3172  1211  1167    1
  3173  2927  2883    1
  3174  2927  3313    1
  3175   782   738    1
  3176   782  1168    1
  3177   353   309    1
  3178   353   739    1
  3179  3373  3293    1
  3180  2086  2006    1
  3181  1228  1148    1
  3182   370   290    1
  3183  3802  3722    1
  3184  2515  2435    1
  3185  1657  1577    1
  3186   799   719    1
  3187  2944  2864    1
  3188  1654  1581    1
  3189  1225  1152    1
  3190   367   294    1
  3191   796   723    1
  3192  2512  2439    1
  3193  3799  3726    1
  3194  2083  2010    1
  3195  2941  2868    1
  3196  3370  3297    1
  3197   385   294    1
  3198  3817  3726    1
  3199  1243  1152    1
  3200   814   723    1
  3201  2959  2868    1
  3202  2101  2010    1
  3203  1672  1581    1
  3204  2530  2439    1
  3205  3388  3297    1
  3206  2505  2467    1
  3207  2076  2038    1
  3208  1218  1180    1
  3209   360   322    1
  3210  2934  2896    1
  3211  3363  3325    1
  3212   789   751    1
  3213  1647  1609    1
  3214  3792  3754    1
  3215  3795  3751    1
  3216  2079  2035    1
  3217  3366  3322    1
  3218   363   319    1
  3219  2508  2464    1
  3220   792   748    1
  3221  1650  1606    1
  3222  1221  1177    1
  3223  2937  2893    1
  3224  3293  3364    1
  3225  3293  3383    1
  3226  1148  1219    1
  3227  1148  1238    1
  3228  2006  2077    1
  3229  2006  2096    1
  3230   290   361    1
  3231   290   380    1
  3232  1577  1648    1
  3233  1577  1667    1
  3234  2864  2935    1
  3235  2864  2954    1
  3236   719   790    1
  3237   719   809    1
  3238  3722  3793    1
  3239  3722  3812    1
  3240  2435  2506    1
  3241  2435  2525    1
  3242  3726  3789    1
  3243  3726  3805    1
  3244   723   786    1
  3245   723   802    1
  3246  1152  1215    1
  3247  1152  1231    1
  3248   294   357    1
  3249   294   373    1
  3250  2868  2931    1
  3251  2868  2947    1
  3252  2010  2073    1
  3253  2010  2089    1
  3254  3297  3360    1
  3255  3297  3376    1
  3256  2439  2502    1
  3257  2439  2518    1
  3258  1581  1644    1
  3259  1581  1660    1
  3260  2024  2046    1
  3261  2453  2475    1
  3262  1595  1617    1
  3263   308   330    1
  3264  1166  1188    1
  3265  3740  3762    1
  3266  2882  2904    1
  3267   737   759    1
  3268  3311  3333    1
  3269  3829  3833    1
  3270  2971  2975    1
  3271  3400  3404    1
  3272  1684  1688    1
  3273  2542  2546    1
  3274  2113  2117    1
  3275   397   401    1
  3276   826   830    1
  3277  1255  1259    1
  3278  2451  2478    1
  3279   306   333    1
  3280  3738  3765    1
  3281  2880  2907    1
  3282  1593  1620    1
  3283  3309  3336    1
  3284   735   762    1
  3285  1164  1191    1
  3286  2022  2049    1
  3287  2896  2935    1
  3288  2896  2900    1
  3289  2038  2077    1
  3290  2038  2042    1
  3291  1180  1219    1
  3292  1180  1184    1
  3293  3325  3364    1
  3294  3325  3329    1
  3295  1609  1648    1
  3296  1609  1613    1
  3297   322   361    1
  3298   322   326    1
  3299  2467  2506    1
  3300  2467  2471    1
  3301   751   790    1
  3302   751   755    1
  3303  3754  3793    1
  3304  3754  3758    1
  3305  1685   407    1
  3306  3830  2552    1
  3307  2972  1694    1
  3308  2543  1265    1
  3309  2114   836    1
  3310  3401  2123    1
  3311  1177  1215    1
  3312  1177  1181    1
  3313  3751  3789    1
  3314  3751  3755    2
  3315  1606  1644    1
  3316  1606  1610    1
  3317   319   357    1
  3318   319   323    1
  3319  3322  3360    1
  3320  3322  3326    2
  3321  2893  2931    1
  3322  2893  2897    2
  3323  2035  2073    1
  3324  2035  2039    1
  3325   748   786    1
  3326   748   752    1
  3327  2464  2502    1
  3328  2464  2468    1
  3329  3404  3410    1
  3330  3404  3408    2
  3331  1688  1694   ar
  3332  1688  1692   ar
  3333   830   836   ar
  3334   830   834   ar
  3335  2975  2981    1
  3336  2975  2979    2
  3337  2546  2552    1
  3338  2546  2550    2
  3339   401   407   ar
  3340   401   405   ar
  3341  2117  2123   ar
  3342  2117  2121   ar
  3343  1259  1265    1
  3344  1259  1263    2
  3345  3833  3839    1
  3346  3833  3837    2
  3347  1249  1263    1
  3348   391   405    1
  3349  2536  2550    1
  3350   820   834    1
  3351  3823  3837    1
  3352  2107  2121    1
  3353  2965  2979    1
  3354  1678  1692    1
  3355  3394  3408    1
  3356  1238  1197    1
  3357  2525  2484    1
  3358  1667  1626    1
  3359   380   339    1
  3360  2954  2913    1
  3361  3383  3342    1
  3362  3812  3771    1
  3363   809   768    1
  3364  2096  2055    1
  3365  2904  2900   ar
  3366  2904  3335   ar
  3367   759   755   ar
  3368   759  1190   ar
  3369  1188  1184    1
  3370   330   326   ar
  3371   330   761   ar
  3372  3762  3758    1
  3373  2046  2042   ar
  3374  2046  2477   ar
  3375  3333  3329   ar
  3376  3333  3764   ar
  3377  2475  2471    1
  3378  1617  1613   ar
  3379  1617  2048   ar
  3380  1694  3409   ar
  3381   407  2122   ar
  3382  2123  3838   ar
  3383   836  2551   ar
  3384  2947  2913    1
  3385  1660  1626    1
  3386  1231  1197    1
  3387  3805  3771    1
  3388  2089  2055    1
  3389  3376  3342    1
  3390   373   339    1
  3391   802   768    1
  3392  2518  2484    1
  3393   762   752   ar
  3394   762  2044   ar
  3395  3336  3326    1
  3396  2049  2039   ar
  3397  2049  3331   ar
  3398  3765  3755    1
  3399  2907  2897    1
  3400  1191  1181   ar
  3401  1191  2473   ar
  3402  1620  1610   ar
  3403  1620  2902   ar
  3404   333   323   ar
  3405   333  1615   ar
  3406  2478  2468   ar
  3407  2478  3760   ar
  3408  1692  3411   ar
  3409  2121  3840   ar
  3410   834  2553   ar
  3411   405  2124   ar
  3412  2900  2905   ar
  3413  1613  1618   ar
  3414  3329  3334   ar
  3415  2471  2476    2
  3416   326   331   ar
  3417  3758  3763    2
  3418   755   760   ar
  3419  1184  1189    2
  3420  2042  2047   ar
  3421  3771  3831    1
  3422  2913  2973    1
  3423  2055  2115    1
  3424  2484  2544    1
  3425  1626  1686    1
  3426  3342  3402    1
  3427   339   399    1
  3428   768   828    1
  3429  1197  1257    1
  3430  3310  3331    1
  3431   307   328    1
  3432   736   757    1
  3433  2023  2044    1
  3434  1165  1186    1
  3435  2881  2902    1
  3436  3739  3760    1
  3437  2452  2473    1
  3438  1594  1615    1
  3439   752   756   ar
  3440  2897  2901    1
  3441   323   327   ar
  3442  1181  1185   ar
  3443  3326  3330    1
  3444  2039  2043   ar
  3445  2468  2472   ar
  3446  1610  1614   ar
  3447  3755  3759    1
  3448  3735  3764    1
  3449  2448  2477    1
  3450  1161  1190    1
  3451  2877  2906    1
  3452  2019  2048    1
  3453   732   761    1
  3454  3306  3335    1
  3455  1590  1619    1
  3456   303   332    1
  3457   406   390    1
  3458   406   402    1
  3459  1693  1677    1
  3460  1693  1689    1
  3461   835   819    1
  3462   835   831    1
  3463  1264  1248    1
  3464  1264  1260    1
  3465  2122  2106    1
  3466  2122  2118   ar
  3467  2551  2535    1
  3468  2551  2547   ar
  3469  3409  3393    1
  3470  3409  3405   ar
  3471  2980  2964    1
  3472  2980  2976    1
  3473  3838  3822    1
  3474  3838  3834   ar
  3475  1186  1182    1
  3476  1615  1611   ar
  3477   328   324    1
  3478  3760  3756   ar
  3479  2473  2469   ar
  3480  3331  3327   ar
  3481   757   753    1
  3482  2044  2040   ar
  3483  2902  2898   ar
  3484  3764  3757   ar
  3485  2477  2470   ar
  3486  2048  2041   ar
  3487   761   754   ar
  3488  1619  1612    1
  3489  2906  2899    1
  3490   332   325    1
  3491  3335  3328   ar
  3492  1190  1183   ar
  3493   837   831    1
  3494   837   823    1
  3495  1695  1689    1
  3496  1695  1681    1
  3497  2982  2976    1
  3498  2982  2968    1
  3499   408   402    1
  3500   408   394    1
  3501  2124  2118   ar
  3502  2124  2110    1
  3503  3840  3834   ar
  3504  3840  3826    1
  3505  1266  1260    1
  3506  1266  1252    1
  3507  2553  2547   ar
  3508  2553  2539    1
  3509  3411  3405   ar
  3510  3411  3397    1
  3511  2547  2485    1
  3512   402   340    2
  3513   831   769    2
  3514  1260  1198    2
  3515  1689  1627    2
  3516  2976  2914    2
  3517  3834  3772    1
  3518  2118  2056    1
  3519  3405  3343    1
  3520  1257  1261   ar
  3521  1257  1267   ar
  3522  1686  1690   ar
  3523  1686  1696   ar
  3524   399   403   ar
  3525   399   409   ar
  3526   828   832   ar
  3527   828   838   ar
  3528  2115  2119   ar
  3529  2115  2125   ar
  3530  2544  2548   ar
  3531  2544  2554   ar
  3532  2973  2977   ar
  3533  2973  2983   ar
  3534  3831  3835   ar
  3535  3831  3841   ar
  3536  3402  3406   ar
  3537  3402  3412   ar
  3538  2970  2977    1
  3539  3828  3835    1
  3540  2541  2548    1
  3541  1683  1690    1
  3542   825   832    1
  3543   396   403    1
  3544  3399  3406    1
  3545  2112  2119    1
  3546  1254  1261    1
  3547   392   409    1
  3548   821   838    1
  3549  2537  2554    1
  3550  3824  3841    1
  3551  1679  1696    1
  3552  2966  2983    1
  3553  1250  1267    1
  3554  3395  3412    1
  3555  2108  2125    1
  3556  1189  1162    1
  3557   331   304    1
  3558   331   758   ar
  3559  1618  1591    1
  3560  1618  2045   ar
  3561  3763  3736    1
  3562  2476  2449    1
  3563   760   733    1
  3564   760  1187   ar
  3565  3334  3307    1
  3566  3334  3761   ar
  3567  2047  2020    1
  3568  2047  2474   ar
  3569  2905  2878    1
  3570  2905  3332   ar
  3571  3835  3842   ar
  3572  1690  1697   ar
  3573  2119  2126   ar
  3574  1261  1268   ar
  3575  3406  3413   ar
  3576   403   410   ar
  3577   832   839   ar
  3578  2977  2984   ar
  3579  2548  2555   ar
  3580  3748  3787    1
  3581  1174  1213    1
  3582   316   355    1
  3583  1603  1642    1
  3584  3319  3358    1
  3585  2461  2500    1
  3586  2890  2929    1
  3587   745   784    1
  3588  2032  2071    1
  3589  1696  1691   ar
  3590  2125  2120   ar
  3591  1267  1262   ar
  3592  3412  3407   ar
  3593  2983  2978   ar
  3594   409   404   ar
  3595  3841  3836   ar
  3596   838   833   ar
  3597  2554  2549   ar
  3598  2043  2071    1
  3599  2043  3337   ar
  3600   756   784    1
  3601   756  2050   ar
  3602  1614  1642    1
  3603  1614  2908   ar
  3604   327   355    1
  3605   327  1621   ar
  3606  1185  1213    1
  3607  1185  2479   ar
  3608  2901  2929    1
  3609  3330  3358    1
  3610  2472  2500    1
  3611  2472  3766   ar
  3612  3759  3787    1
  3613  3756  3766   ar
  3614  3756  3752    1
  3615  1611  1621   ar
  3616  1611  1607    1
  3617  3327  3337   ar
  3618  3327  3323    1
  3619  2898  2908   ar
  3620  2898  2894    1
  3621  2469  2479   ar
  3622  2469  2465    1
  3623   753   763    2
  3624   753   749    1
  3625  1182  1192    2
  3626  1182  1178    1
  3627   324   334    2
  3628   324   320    1
  3629  2040  2050   ar
  3630  2040  2036    1
  3631  2914  2948    1
  3632  2914  2953    1
  3633   769   803    1
  3634   769   808    1
  3635  1627  1661    1
  3636  1627  1666    1
  3637  3772  3806    1
  3638  3772  3811    1
  3639  3343  3377    1
  3640  3343  3382    1
  3641  2056  2090    1
  3642  2056  2095    1
  3643  1198  1232    1
  3644  1198  1237    1
  3645  2485  2519    1
  3646  2485  2524    1
  3647   340   374    1
  3648   340   379    1
  3649  2899  2903    2
  3650  2899  2895    1
  3651   325   329    2
  3652   325   321    1
  3653  1183  1187   ar
  3654  1183  1179    1
  3655  3757  3761   ar
  3656  3757  3753    1
  3657   754   758   ar
  3658   754   750    1
  3659  2041  2045   ar
  3660  2041  2037    1
  3661  3328  3332   ar
  3662  3328  3324    1
  3663  2470  2474   ar
  3664  2470  2466    1
  3665  1612  1616    2
  3666  1612  1608    1
  3667  3787  3747    1
  3668  2071  2031    1
  3669  2929  2889    1
  3670   355   315    1
  3671  1213  1173    1
  3672  1642  1602    1
  3673   784   744    1
  3674  2500  2460    1
  3675  3358  3318    1
  3676  1697  1680    1
  3677  1697  1687   ar
  3678  2984  2967    1
  3679  2984  2974   ar
  3680   410   393    1
  3681   410   400   ar
  3682  3842  3825    1
  3683  3842  3832   ar
  3684  3413  3396    1
  3685  3413  3403   ar
  3686   839   822    1
  3687   839   829   ar
  3688  2126  2109    1
  3689  2126  2116   ar
  3690  1268  1251    1
  3691  1268  1258   ar
  3692  2555  2538    1
  3693  2555  2545   ar
  3694   803   722    1
  3695   374   293    1
  3696  2090  2009    1
  3697  3377  3296    1
  3698  3806  3725    1
  3699  1232  1151    1
  3700  2948  2867    1
  3701  2519  2438    1
  3702  1661  1580    1
  3703   334   305    1
  3704  3337  3308    1
  3705  3766  3737    1
  3706  2050  2021    1
  3707   763   734    1
  3708  1192  1163    1
  3709  2908  2879    1
  3710  2479  2450    1
  3711  1621  1592    1
  3712  1262  1247    1
  3713  1262  1258   ar
  3714  2978  2963    1
  3715  2978  2974   ar
  3716  3836  3821    1
  3717  3836  3832   ar
  3718   404   389    1
  3719   404   400   ar
  3720   833   818    1
  3721   833   829   ar
  3722  3407  3392    1
  3723  3407  3403   ar
  3724  1691  1676    1
  3725  1691  1687   ar
  3726  2120  2105    1
  3727  2120  2116   ar
  3728  2549  2534    1
  3729  2549  2545   ar
  3730   379   289    1
  3731  2953  2863    1
  3732   808   718    1
  3733  2095  2005    1
  3734  1237  1147    1
  3735  3382  3292    1
  3736  2524  2434    1
  3737  3811  3721    1
  3738  1666  1576    1
  3739  2932  2894    1
  3740  2932  2867    1
  3741  2074  2036    1
  3742  2074  2009    1
  3743  2503  2465    1
  3744  2503  2438    1
  3745  3361  3323    1
  3746  3361  3296    1
  3747  1216  1178    1
  3748  1216  1151    1
  3749   787   749    1
  3750   787   722    1
  3751  1645  1607    1
  3752  1645  1580    1
  3753   358   320    1
  3754   358   293    1
  3755  3790  3752    1
  3756  3790  3725    1
  3757  3761  3788    1
  3758  1616  1643    1
  3759  2903  2930    1
  3760  1187  1214    1
  3761  3332  3359    1
  3762   758   785    1
  3763   329   356    1
  3764  2045  2072    1
  3765  2474  2501    1
  3766  2078  2037    1
  3767  2078  2005    1
  3768  1649  1608    1
  3769  1649  1576    1
  3770  3365  3324    1
  3771  3365  3292    1
  3772  1220  1179    1
  3773  1220  1147    1
  3774  3794  3753    1
  3775  3794  3721    1
  3776   362   321    1
  3777   362   289    1
  3778   791   750    1
  3779   791   718    1
  3780  2936  2895    1
  3781  2936  2863    1
  3782  2507  2466    1
  3783  2507  2434    1
  3784  1258  1253    1
  3785  2116  2111    1
  3786  2545  2540    1
  3787  1687  1682    1
  3788  3403  3398    1
  3789   829   824    1
  3790  2974  2969    1
  3791   400   395    1
  3792  3832  3827    1
  3793  3323  3367    1
  3794  1607  1651    1
  3795  2036  2080    1
  3796  1178  1222    1
  3797   320   364    1
  3798  3752  3796    1
  3799  2894  2938    1
  3800   749   793    1
  3801  2465  2509    1
  3802  1608  1646    1
  3803  1179  1217    1
  3804  2466  2504    1
  3805   750   788    1
  3806  2895  2933    1
  3807   321   359    1
  3808  2037  2075    1
  3809  3753  3791    1
  3810  3324  3362    1
  3811  1643  1604    1
  3812  1643  1605    1
  3813   785   746    1
  3814   785   747    1
  3815  2930  2891    1
  3816  2930  2892    1
  3817  1214  1175    1
  3818  1214  1176    1
  3819  2072  2033    1
  3820  2072  2034    1
  3821  3359  3320    1
  3822  3359  3321    1
  3823   356   317    1
  3824   356   318    1
  3825  2501  2462    1
  3826  2501  2463    1
  3827  3788  3749    1
  3828  3788  3750    1
  3829  3296  3389    1
  3830  3296  3369    1
  3831  3296  3371    1
  3832  1151  1244    1
  3833  1151  1224    1
  3834  1151  1226    1
  3835  3725  3818    1
  3836  3725  3798    1
  3837  3725  3800    1
  3838  2867  2960    1
  3839  2867  2940    1
  3840  2867  2942    1
  3841   722   815    1
  3842   722   795    1
  3843   722   797    1
  3844  2438  2531    1
  3845  2438  2511    1
  3846  2438  2513    1
  3847  1580  1673    1
  3848  1580  1653    1
  3849  1580  1655    1
  3850   293   386    1
  3851   293   366    1
  3852   293   368    1
  3853  2009  2102    1
  3854  2009  2082    1
  3855  2009  2084    1
  3856  3721  3803    1
  3857  3721  3801    1
  3858   289   371    1
  3859   289   369    1
  3860  2005  2087    1
  3861  2005  2085    1
  3862  1147  1229    1
  3863  1147  1227    1
  3864   718   800    1
  3865   718   798    1
  3866  1576  1658    1
  3867  1576  1656    1
  3868  2863  2945    1
  3869  2863  2943    1
  3870  3292  3374    1
  3871  3292  3372    1
  3872  2434  2516    1
  3873  2434  2514    1
  3874  3367  3290    1
  3875  1222  1145    1
  3876  2080  2003    1
  3877   793   716    1
  3878  1651  1574    1
  3879  2509  2432    1
  3880  2938  2861    1
  3881   364   287    1
  3882  3796  3719    1
  3883  1646  1579    1
  3884  2933  2866    1
  3885   359   292    1
  3886   788   721    1
  3887  3362  3295    1
  3888  2075  2008    1
  3889  3791  3724    1
  3890  2504  2437    1
  3891  1217  1150    1
  3892  3745  3786    1
  3893  2458  2499    1
  3894   313   354    1
  3895  1600  1641    1
  3896  3316  3357    1
  3897  1171  1212    1
  3898   742   783    1
  3899  2029  2070    1
  3900  2887  2928    1
  3901  1244  1170    1
  3902  2531  2457    1
  3903   815   741    1
  3904  3818  3744    1
  3905  3389  3315    1
  3906  1673  1599    1
  3907  2102  2028    1
  3908  2960  2886    1
  3909   386   312    1
  3910   795   716    1
  3911  2511  2432    1
  3912   366   287    1
  3913  3798  3719    1
  3914  3369  3290    1
  3915  1224  1145    1
  3916  2082  2003    1
  3917  1653  1574    1
  3918  2940  2861    1
  3919  1229  1150    1
  3920  2516  2437    1
  3921   371   292    1
  3922  2087  2008    1
  3923   800   721    1
  3924  3374  3295    1
  3925  3803  3724    1
  3926  1658  1579    1
  3927  2945  2866    1
  3928  2988  2992    1
  3929  1701  1705    1
  3930  2130  2134    1
  3931  1272  1276    1
  3932  3846  3850    1
  3933  3417  3421    1
  3934   414   418    1
  3935  2559  2563    1
  3936   843   847    1
  3937   743   783    1
  3938  1172  1212    1
  3939   314   354    1
  3940  2030  2070    1
  3941  2459  2499    1
  3942  3317  3357    1
  3943  1601  1641    1
  3944  3746  3786    1
  3945  2888  2928    1
  3946   783   778    1
  3947  3357  3352    1
  3948  2499  2494    1
  3949  3786  3781    1
  3950  1641  1636    1
  3951  1212  1207    1
  3952  2070  2065    1
  3953   354   349    1
  3954  2928  2923    1
  3955  1655  1574    1
  3956  2513  2432    1
  3957  3800  3719    1
  3958  1226  1145    1
  3959   368   287    1
  3960   797   716    1
  3961  3371  3290    1
  3962  2942  2861    1
  3963  2084  2003    1
  3964   841   844    1
  3965  2557  2560    1
  3966  3415  3418    1
  3967  1270  1273    1
  3968  3844  3847    1
  3969  1699  1702    1
  3970  2986  2989    1
  3971   412   415    1
  3972  2128  2131    1
  3973  3372  3295    1
  3974   369   292    1
  3975  1656  1579    1
  3976  2514  2437    1
  3977  2943  2866    1
  3978   798   721    1
  3979  1227  1150    1
  3980  3801  3724    1
  3981  2085  2008    1
  3982  3426  3421    1
  3983  2568  2563    1
  3984  1281  1276    1
  3985  3855  3850    1
  3986   852   847    1
  3987  2139  2134    1
  3988   423   418    1
  3989  1710  1705    1
  3990  2997  2992    1
  3991  2871  2922    1
  3992  3729  3780    1
  3993   726   777    1
  3994  1584  1635    1
  3995  2442  2493    1
  3996  3300  3351    1
  3997  2013  2064    1
  3998   297   348    1
  3999  1155  1206    1
  4000  2444  2496    1
  4001  3302  3354    1
  4002  1586  1638    1
  4003  3731  3783    1
  4004  2015  2067    1
  4005  1157  1209    1
  4006   299   351    1
  4007  2873  2925    1
  4008   728   780    1
  4009  1153  1204    1
  4010  2869  2920    1
  4011  1582  1633    1
  4012  2440  2491    1
  4013   295   346    1
  4014  2011  2062    1
  4015  3298  3349    1
  4016   724   775    1
  4017  3727  3778    1
  4018   855   854    1
  4019   426   425    1
  4020  1713  1712    1
  4021  3000  2999    1
  4022  2142  2141    1
  4023  2571  2570    1
  4024  3429  3428    1
  4025  3858  3857    1
  4026  1284  1283    1
  4027  3850  3857    1
  4028  3850  3851    1
  4029  2134  2141    1
  4030  2134  2135    1
  4031   847   854    1
  4032   847   848    1
  4033  1276  1283    1
  4034  1276  1277    1
  4035  3421  3428    1
  4036  3421  3422    1
  4037   418   425    1
  4038   418   419    1
  4039  2563  2570    1
  4040  2563  2564    1
  4041  2992  2999    1
  4042  2992  2993    1
  4043  1705  1712    1
  4044  1705  1706    1
  4045  2432  2527    1
  4046  2432  2529    1
  4047  2003  2098    1
  4048  2003  2100    1
  4049  3719  3814    1
  4050  3719  3816    1
  4051  2861  2956    1
  4052  2861  2958    1
  4053  1145  1240    1
  4054  1145  1242    1
  4055   716   811    1
  4056   716   813    1
  4057  3290  3385    1
  4058  3290  3387    1
  4059  1574  1669    1
  4060  1574  1671    1
  4061   287   382    1
  4062   287   384    1
  4063   292   377    1
  4064   292   375    1
  4065  1150  1235    1
  4066  1150  1233    1
  4067   721   806    1
  4068   721   804    1
  4069  3295  3380    1
  4070  3295  3378    1
  4071  2008  2093    1
  4072  2008  2091    1
  4073  2866  2951    1
  4074  2866  2949    1
  4075  3724  3809    1
  4076  3724  3807    1
  4077  2437  2522    1
  4078  2437  2520    1
  4079  1579  1664    1
  4080  1579  1662    1
  4081  3847  3853    1
  4082  3847  3845    2
  4083  3418  3424    1
  4084  3418  3416    2
  4085  2989  2995    1
  4086  2989  2987    2
  4087  1702  1708    1
  4088  1702  1700    2
  4089   844   850    1
  4090   844   842    2
  4091  2560  2566    1
  4092  2560  2558    2
  4093  2131  2137    1
  4094  2131  2129    2
  4095   415   421    1
  4096   415   413    2
  4097  1273  1279    1
  4098  1273  1271    2
  4099  1635   349    1
  4100  3780  2494    1
  4101  2922  1636    1
  4102  2064   778    1
  4103  2493  1207    1
  4104  3351  2065    1
  4105  3428  3424    1
  4106  3428  3432    1
  4107   425   421    1
  4108   425   429    1
  4109  2999  2995    1
  4110  2999  3003    1
  4111  3857  3853    1
  4112  3857  3861    1
  4113  2570  2566    1
  4114  2570  2574    1
  4115  1712  1708    1
  4116  1712  1716    1
  4117  1283  1279    1
  4118  1283  1287    1
  4119   854   850    1
  4120   854   858    1
  4121  2141  2137    1
  4122  2141  2145    1
  4123  3349  3783    1
  4124   346   780    1
  4125  2062  2496    1
  4126   775  1209    1
  4127  2920  3354    1
  4128  1633  2067    1
  4129  2137  2140    1
  4130   850   853    1
  4131  1279  1282    1
  4132  2995  2998    1
  4133   421   424    1
  4134  3853  3856    1
  4135  3424  3427    1
  4136  1708  1711    1
  4137  2566  2569    1
  4138  1269  1271    1
  4139  3414  3416    1
  4140  2127  2129    1
  4141  3843  3845    1
  4142  2985  2987    1
  4143   411   413    1
  4144   840   842    1
  4145  1698  1700    1
  4146  2556  2558    1
  4147  1700  1704    1
  4148  2987  2991    1
  4149  3845  3849    1
  4150  1271  1275    1
  4151   842   846    1
  4152   413   417    1
  4153  2129  2133    1
  4154  2558  2562    1
  4155  3416  3420    1
  4156  2140  2133    1
  4157  2140  2144    1
  4158  2569  2562    1
  4159  2569  2573    1
  4160  3427  3420    1
  4161  3427  3431    1
  4162  2998  2991    1
  4163  2998  3002    1
  4164  1711  1704    1
  4165  1711  1715    1
  4166  1282  1275    1
  4167  1282  1286    1
  4168  3856  3849    1
  4169  3856  3860    1
  4170   853   846    1
  4171   853   857    1
  4172   424   417    1
  4173   424   428    1
  4174  1704  1707    1
  4175  3849  3852    1
  4176  2562  2565    1
  4177  2991  2994    1
  4178  1275  1278    1
  4179   417   420    1
  4180  3420  3423    1
  4181  2133  2136    1
  4182   846   849    1
  4183   845   849    1
  4184  2561  2565    1
  4185  3848  3852    1
  4186  1703  1707    1
  4187  3419  3423    1
  4188  2990  2994    1
  4189  2132  2136    1
  4190  1274  1278    1
  4191   416   420    1
  4192  2565  2567    1
  4193  2565  2572    1
  4194  1278  1280    1
  4195  1278  1285    1
  4196  1707  1709    1
  4197  1707  1714    1
  4198  3852  3854    1
  4199  3852  3859    1
  4200  2136  2138    1
  4201  2136  2143    1
  4202   849   851    1
  4203   849   856    1
  4204  2994  2996    1
  4205  2994  3001    1
  4206  3423  3425    1
  4207  3423  3430    1
  4208   420   422    1
  4209   420   427    1
