@<TRIPOS>MOLECULE
Lattice="32.018782 0.0 0.0 -14.043870532898428 28.753623292648026 0.0 -8.625062807759862 -14.478403582935226 26.22054754850901" Properties=species:S:1:pos:R:3 i=69 E=-1376.2650183904 pbc="T T T"
 200 196 0 0 0
SMALL
GASTEIGER

@<TRIPOS>ATOM
      1 N           2.4864    0.8795    4.1882 N.pl3   1  UNL1       -0.3135
      2 N           2.7198    2.7296    3.0525 N.pl3   1  UNL1       -0.3166
      3 C           1.8644   -0.3301    4.7628 C.3     1  UNL1        0.0135
      4 C           2.0471   -1.5214    3.8150 C.3     1  UNL1       -0.0372
      5 C           1.2752   -2.7562    4.2916 C.3     1  UNL1       -0.0516
      6 C           1.8248    1.9161    3.6461 C.3     1  UNL1        0.1250
      7 C           3.8387    1.0372    3.9337 C.2     1  UNL1        0.0074
      8 C           3.9877    2.1944    3.2176 C.2     1  UNL1        0.0072
      9 C          -4.9259   10.6166    3.3908 C.3     2  UNL2       -0.0652
     10 C           2.3876    3.9381    2.2848 C.3     1  UNL1        0.0020
     11 H           0.8030   -0.1035    4.9256 H       1  UNL1        0.0464
     12 H           2.3186   -0.5135    5.7464 H       1  UNL1        0.0464
     13 H           1.7147   -1.2346    2.8065 H       1  UNL1        0.0280
     14 H           3.1196   -1.7522    3.7273 H       1  UNL1        0.0280
     15 H           0.1979   -2.5427    4.2587 H       1  UNL1        0.0266
     16 H           1.5038   -2.9510    5.3501 H       1  UNL1        0.0266
     17 H           0.7540    2.0672    3.6767 H       1  UNL1        0.0746
     18 H           4.5707    0.3173    4.2747 H       1  UNL1        0.0793
     19 H           4.8755    2.6908    2.8306 H       1  UNL1        0.0793
     20 H          -3.8656   10.3391    3.4653 H       2  UNL2        0.0230
     21 H          -5.5187    9.7518    3.7191 H       2  UNL2        0.0230
     22 H          -5.1478   10.7789    2.3275 H       2  UNL2        0.0230
     23 H           2.1242    3.6643    1.2566 H       1  UNL1        0.0428
     24 H           3.2595    4.5998    2.2781 H       1  UNL1        0.0428
     25 H           1.5509    4.4624    2.7582 H       1  UNL1        0.0428
     26 N          -1.8261   -6.3597   17.2985 N.pl3   3  UNL3       -0.3135
     27 N          -1.5928   -4.5096   16.1628 N.pl3   3  UNL3       -0.3166
     28 C          -2.4481   -7.5693   17.8730 C.3     3  UNL3        0.0135
     29 C          -2.2654   -8.7606   16.9253 C.3     3  UNL3       -0.0372
     30 C          -3.0373   -9.9954   17.4019 C.3     3  UNL3       -0.0516
     31 C          -2.4877   -5.3231   16.7564 C.3     3  UNL3        0.1250
     32 C          -0.4738   -6.2020   17.0439 C.2     3  UNL3        0.0074
     33 C          -0.3249   -5.0448   16.3279 C.2     3  UNL3        0.0072
     34 C          -9.2385    3.3774   16.5011 C.3     4  UNL4       -0.0652
     35 C          -1.9250   -3.3011   15.3951 C.3     3  UNL3        0.0020
     36 H          -3.5096   -7.3427   18.0358 H       3  UNL3        0.0464
     37 H          -1.9940   -7.7527   18.8567 H       3  UNL3        0.0464
     38 H          -2.5979   -8.4738   15.9168 H       3  UNL3        0.0280
     39 H          -1.1929   -8.9914   16.8375 H       3  UNL3        0.0280
     40 H          -4.1146   -9.7819   17.3689 H       3  UNL3        0.0266
     41 H          -2.8088  -10.1902   18.4604 H       3  UNL3        0.0266
     42 H          -3.5586   -5.1720   16.7870 H       3  UNL3        0.0746
     43 H           0.2581   -6.9219   17.3850 H       3  UNL3        0.0793
     44 H           0.5630   -4.5484   15.9408 H       3  UNL3        0.0793
     45 H          -8.1781    3.0999   16.5755 H       4  UNL4        0.0230
     46 H          -9.8313    2.5126   16.8293 H       4  UNL4        0.0230
     47 H          -9.4604    3.5397   15.4378 H       4  UNL4        0.0230
     48 H          -2.1884   -3.5749   14.3668 H       3  UNL3        0.0428
     49 H          -1.0530   -2.6394   15.3884 H       3  UNL3        0.0428
     50 H          -2.7616   -2.7768   15.8685 H       3  UNL3        0.0428
     51 N          -4.5355   15.2563    4.1882 N.pl3   2  UNL2       -0.3135
     52 N          -4.3022   17.1064    3.0525 N.pl3   2  UNL2       -0.3166
     53 C          -5.1575   14.0468    4.7628 C.3     2  UNL2        0.0135
     54 C          -4.9748   12.8554    3.8150 C.3     2  UNL2       -0.0374
     55 C          -5.7467   11.6206    4.2916 C.3     2  UNL2       -0.0545
     56 C          -5.1971   16.2929    3.6461 C.3     2  UNL2        0.1250
     57 C          -3.1832   15.4140    3.9337 C.2     2  UNL2        0.0074
     58 C          -3.0343   16.5712    3.2176 C.2     2  UNL2        0.0072
     59 C         -11.9479   24.9934    3.3908 C.3     5  UNL5       -0.0681
     60 C          -4.6344   18.3149    2.2848 C.3     2  UNL2        0.0020
     61 H          -6.2190   14.2733    4.9256 H       2  UNL2        0.0464
     62 H          -4.7034   13.8633    5.7464 H       2  UNL2        0.0464
     63 H          -5.3073   13.1422    2.8065 H       2  UNL2        0.0280
     64 H          -3.9023   12.6246    3.7273 H       2  UNL2        0.0280
     65 H          -6.8240   11.8341    4.2587 H       2  UNL2        0.0263
     66 H          -5.5182   11.4258    5.3501 H       2  UNL2        0.0263
     67 H          -6.2680   16.4440    3.6767 H       2  UNL2        0.0746
     68 H          -2.4513   14.6941    4.2747 H       2  UNL2        0.0793
     69 H          -2.1465   17.0676    2.8306 H       2  UNL2        0.0793
     70 H         -10.8875   24.7159    3.4653 H       1  UNL1        0.0227
     71 H         -12.5407   24.1286    3.7191 H       1  UNL1        0.0227
     72 H         -12.1698   25.1558    2.3275 H       1  UNL1        0.0227
     73 H          -4.8978   18.0411    1.2566 H       2  UNL2        0.0428
     74 H          -3.7624   18.9766    2.2781 H       2  UNL2        0.0428
     75 H          -5.4710   18.8392    2.7582 H       2  UNL2        0.0428
     76 N          -8.8480    8.0171   17.2985 N.pl3   4  UNL4       -0.3135
     77 N          -8.6147    9.8672   16.1628 N.pl3   4  UNL4       -0.3166
     78 C          -9.4701    6.8076   17.8730 C.3     4  UNL4        0.0135
     79 C          -9.2874    5.6162   16.9253 C.3     4  UNL4       -0.0374
     80 C         -10.0593    4.3814   17.4019 C.3     4  UNL4       -0.0545
     81 C          -9.5097    9.0537   16.7564 C.3     4  UNL4        0.1250
     82 C          -7.4957    8.1748   17.0439 C.2     4  UNL4        0.0074
     83 C          -7.3468    9.3320   16.3279 C.2     4  UNL4        0.0072
     84 C         -16.2604   17.7542   16.5011 C.3     6  UNL6       -0.0681
     85 C          -8.9469   11.0757   15.3951 C.3     4  UNL4        0.0020
     86 H         -10.5315    7.0341   18.0358 H       4  UNL4        0.0464
     87 H          -9.0159    6.6241   18.8567 H       4  UNL4        0.0464
     88 H          -9.6198    5.9030   15.9168 H       4  UNL4        0.0280
     89 H          -8.2148    5.3854   16.8375 H       4  UNL4        0.0280
     90 H         -11.1366    4.5949   17.3689 H       4  UNL4        0.0263
     91 H          -9.8307    4.1866   18.4604 H       4  UNL4        0.0263
     92 H         -10.5805    9.2048   16.7870 H       4  UNL4        0.0746
     93 H          -6.7638    7.4549   17.3850 H       4  UNL4        0.0793
     94 H          -6.4590    9.8284   15.9408 H       4  UNL4        0.0793
     95 H         -15.2001   17.4767   16.5755 H       2  UNL2        0.0227
     96 H         -16.8532   16.8894   16.8293 H       2  UNL2        0.0227
     97 H         -16.4823   17.9166   15.4378 H       2  UNL2        0.0227
     98 H          -9.2103   10.8019   14.3668 H       4  UNL4        0.0428
     99 H          -8.0749   11.7374   15.3884 H       4  UNL4        0.0428
    100 H          -9.7836   11.6000   15.8685 H       4  UNL4        0.0428
    101 N          18.4958    0.8795    4.1882 N.pl3   7  UNL7       -0.3135
    102 N          18.7291    2.7296    3.0525 N.pl3   7  UNL7       -0.3166
    103 C          17.8738   -0.3301    4.7628 C.3     7  UNL7        0.0135
    104 C          18.0565   -1.5214    3.8150 C.3     7  UNL7       -0.0372
    105 C          17.2846   -2.7562    4.2916 C.3     7  UNL7       -0.0516
    106 C          17.8342    1.9161    3.6461 C.3     7  UNL7        0.1250
    107 C          19.8481    1.0372    3.9337 C.2     7  UNL7        0.0074
    108 C          19.9971    2.1944    3.2176 C.2     7  UNL7        0.0072
    109 C          11.0835   10.6166    3.3908 C.3     8  UNL8       -0.0652
    110 C          18.3970    3.9381    2.2848 C.3     7  UNL7        0.0020
    111 H          16.8124   -0.1035    4.9256 H       7  UNL7        0.0464
    112 H          18.3279   -0.5135    5.7464 H       7  UNL7        0.0464
    113 H          17.7240   -1.2346    2.8065 H       7  UNL7        0.0280
    114 H          19.1290   -1.7522    3.7273 H       7  UNL7        0.0280
    115 H          16.2073   -2.5427    4.2587 H       7  UNL7        0.0266
    116 H          17.5132   -2.9510    5.3501 H       7  UNL7        0.0266
    117 H          16.7633    2.0672    3.6767 H       7  UNL7        0.0746
    118 H          20.5801    0.3173    4.2747 H       7  UNL7        0.0793
    119 H          20.8849    2.6908    2.8306 H       7  UNL7        0.0793
    120 H          12.1438   10.3391    3.4653 H       8  UNL8        0.0230
    121 H          10.4907    9.7518    3.7191 H       8  UNL8        0.0230
    122 H          10.8616   10.7789    2.3275 H       8  UNL8        0.0230
    123 H          18.1336    3.6643    1.2566 H       7  UNL7        0.0428
    124 H          19.2689    4.5998    2.2781 H       7  UNL7        0.0428
    125 H          17.5603    4.4624    2.7582 H       7  UNL7        0.0428
    126 N          14.1833   -6.3597   17.2985 N.pl3   9  UNL9       -0.3135
    127 N          14.4166   -4.5096   16.1628 N.pl3   9  UNL9       -0.3166
    128 C          13.5613   -7.5693   17.8730 C.3     9  UNL9        0.0135
    129 C          13.7440   -8.7606   16.9253 C.3     9  UNL9       -0.0372
    130 C          12.9721   -9.9954   17.4019 C.3     9  UNL9       -0.0516
    131 C          13.5217   -5.3231   16.7564 C.3     9  UNL9        0.1250
    132 C          15.5356   -6.2020   17.0439 C.2     9  UNL9        0.0074
    133 C          15.6845   -5.0448   16.3279 C.2     9  UNL9        0.0072
    134 C           6.7709    3.3774   16.5011 C.3    10  UNL10      -0.0652
    135 C          14.0844   -3.3011   15.3951 C.3     9  UNL9        0.0020
    136 H          12.4998   -7.3427   18.0358 H       9  UNL9        0.0464
    137 H          14.0154   -7.7527   18.8567 H       9  UNL9        0.0464
    138 H          13.4115   -8.4738   15.9168 H       9  UNL9        0.0280
    139 H          14.8165   -8.9914   16.8375 H       9  UNL9        0.0280
    140 H          11.8948   -9.7819   17.3689 H       9  UNL9        0.0266
    141 H          13.2006  -10.1902   18.4604 H       9  UNL9        0.0266
    142 H          12.4508   -5.1720   16.7870 H       9  UNL9        0.0746
    143 H          16.2675   -6.9219   17.3850 H       9  UNL9        0.0793
    144 H          16.5723   -4.5484   15.9408 H       9  UNL9        0.0793
    145 H           7.8312    3.0999   16.5755 H      10  UNL10       0.0230
    146 H           6.1781    2.5126   16.8293 H      10  UNL10       0.0230
    147 H           6.5490    3.5397   15.4378 H      10  UNL10       0.0230
    148 H          13.8210   -3.5749   14.3668 H       9  UNL9        0.0428
    149 H          14.9564   -2.6394   15.3884 H       9  UNL9        0.0428
    150 H          13.2477   -2.7768   15.8685 H       9  UNL9        0.0428
    151 N          11.4739   15.2563    4.1882 N.pl3   8  UNL8       -0.3135
    152 N          11.7072   17.1064    3.0525 N.pl3   8  UNL8       -0.3166
    153 C          10.8519   14.0468    4.7628 C.3     8  UNL8        0.0135
    154 C          11.0346   12.8554    3.8150 C.3     8  UNL8       -0.0374
    155 C          10.2626   11.6206    4.2916 C.3     8  UNL8       -0.0545
    156 C          10.8123   16.2929    3.6461 C.3     8  UNL8        0.1250
    157 C          12.8262   15.4140    3.9337 C.2     8  UNL8        0.0074
    158 C          12.9751   16.5712    3.2176 C.2     8  UNL8        0.0072
    159 C           4.0615   24.9934    3.3908 C.3    11  UNL11      -0.0681
    160 C          11.3750   18.3149    2.2848 C.3     8  UNL8        0.0020
    161 H           9.7904   14.2733    4.9256 H       8  UNL8        0.0464
    162 H          11.3060   13.8633    5.7464 H       8  UNL8        0.0464
    163 H          10.7021   13.1422    2.8065 H       8  UNL8        0.0280
    164 H          12.1071   12.6246    3.7273 H       8  UNL8        0.0280
    165 H           9.1854   11.8341    4.2587 H       8  UNL8        0.0263
    166 H          10.4912   11.4258    5.3501 H       8  UNL8        0.0263
    167 H           9.7414   16.4440    3.6767 H       8  UNL8        0.0746
    168 H          13.5581   14.6941    4.2747 H       8  UNL8        0.0793
    169 H          13.8629   17.0676    2.8306 H       8  UNL8        0.0793
    170 H           5.1218   24.7159    3.4653 H       3  UNL3        0.0227
    171 H           3.4687   24.1286    3.7191 H       3  UNL3        0.0227
    172 H           3.8396   25.1558    2.3275 H       3  UNL3        0.0227
    173 H          11.1116   18.0411    1.2566 H       8  UNL8        0.0428
    174 H          12.2470   18.9766    2.2781 H       8  UNL8        0.0428
    175 H          10.5383   18.8392    2.7582 H       8  UNL8        0.0428
    176 N           7.1614    8.0171   17.2985 N.pl3  10  UNL10      -0.3135
    177 N           7.3947    9.8672   16.1628 N.pl3  10  UNL10      -0.3166
    178 C           6.5393    6.8076   17.8730 C.3    10  UNL10       0.0135
    179 C           6.7220    5.6162   16.9253 C.3    10  UNL10      -0.0374
    180 C           5.9501    4.3814   17.4019 C.3    10  UNL10      -0.0545
    181 C           6.4997    9.0537   16.7564 C.3    10  UNL10       0.1250
    182 C           8.5137    8.1748   17.0439 C.2    10  UNL10       0.0074
    183 C           8.6626    9.3320   16.3279 C.2    10  UNL10       0.0072
    184 C          -0.2510   17.7542   16.5011 C.3    12  UNL12      -0.0681
    185 C           7.0625   11.0757   15.3951 C.3    10  UNL10       0.0020
    186 H           5.4779    7.0341   18.0358 H      10  UNL10       0.0464
    187 H           6.9935    6.6241   18.8567 H      10  UNL10       0.0464
    188 H           6.3896    5.9030   15.9168 H      10  UNL10       0.0280
    189 H           7.7946    5.3854   16.8375 H      10  UNL10       0.0280
    190 H           4.8728    4.5949   17.3689 H      10  UNL10       0.0263
    191 H           6.1787    4.1866   18.4604 H      10  UNL10       0.0263
    192 H           5.4289    9.2048   16.7870 H      10  UNL10       0.0746
    193 H           9.2456    7.4549   17.3850 H      10  UNL10       0.0793
    194 H           9.5504    9.8284   15.9408 H      10  UNL10       0.0793
    195 H           0.8093   17.4767   16.5755 H       4  UNL4        0.0227
    196 H          -0.8438   16.8894   16.8293 H       4  UNL4        0.0227
    197 H          -0.4729   17.9166   15.4378 H       4  UNL4        0.0227
    198 H           6.7991   10.8019   14.3668 H      10  UNL10       0.0428
    199 H           7.9344   11.7374   15.3884 H      10  UNL10       0.0428
    200 H           6.2258   11.6000   15.8685 H      10  UNL10       0.0428
@<TRIPOS>BOND
     1    73    60    1
     2    23    10    1
     3   173   160    1
     4   123   110    1
     5   174   160    1
     6    74    60    1
     7    24    10    1
     8   124   110    1
     9   110   125    1
    10   110   102    1
    11   160   175    1
    12   160   152    1
    13    60    75    1
    14    60    52    1
    15    10    25    1
    16    10     2    1
    17   172   159    1
    18    22     9    1
    19    72    59    1
    20   122   109    1
    21    63    54    1
    22   163   154    1
    23    13     4    1
    24   113   104    1
    25    19     8    1
    26   169   158    1
    27   119   108    1
    28    69    58    1
    29   152   158    1
    30   152   156    1
    31    52    58    1
    32    52    56    1
    33   102   108    1
    34   102   106    1
    35     2     8    1
    36     2     6    1
    37   158   157    2
    38     8     7    2
    39   108   107    2
    40    58    57    2
    41   159   170    1
    42   159   171    1
    43     9    20    1
    44     9    21    1
    45     9    55    1
    46    59    70    1
    47    59    71    1
    48   109   120    1
    49   109   121    1
    50   109   155    1
    51   156   167    1
    52   156   151    1
    53   106   117    1
    54   106   101    1
    55    56    67    1
    56    56    51    1
    57     6    17    1
    58     6     1    1
    59   114   104    1
    60    14     4    1
    61    64    54    1
    62   164   154    1
    63   104   105    1
    64   104   103    1
    65     4     5    1
    66     4     3    1
    67   154   155    1
    68   154   153    1
    69    54    55    1
    70    54    53    1
    71   157   151    1
    72   157   168    1
    73     7     1    1
    74     7    18    1
    75    57    51    1
    76    57    68    1
    77   107   101    1
    78   107   118    1
    79     1     3    1
    80   151   153    1
    81   101   103    1
    82    51    53    1
    83    65    55    1
    84   115   105    1
    85   165   155    1
    86    15     5    1
    87   105   116    1
    88    55    66    1
    89     5    16    1
    90   155   166    1
    91   153   161    1
    92   153   162    1
    93    53    61    1
    94    53    62    1
    95   103   111    1
    96   103   112    1
    97     3    11    1
    98     3    12    1
    99    98    85    1
   100   148   135    1
   101   198   185    1
   102    48    35    1
   103    99    85    1
   104   199   185    1
   105   149   135    1
   106    49    35    1
   107   135   150    1
   108   135   127    1
   109   185   200    1
   110   185   177    1
   111    35    50    1
   112    35    27    1
   113    85   100    1
   114    85    77    1
   115    47    34    1
   116   197   184    1
   117   147   134    1
   118    97    84    1
   119    88    79    1
   120    38    29    1
   121   138   129    1
   122   188   179    1
   123    44    33    1
   124   144   133    1
   125    94    83    1
   126   194   183    1
   127    27    33    1
   128    27    31    1
   129    77    83    1
   130    77    81    1
   131   177   183    1
   132   177   181    1
   133   127   133    1
   134   127   131    1
   135    33    32    2
   136   183   182    2
   137   133   132    2
   138    83    82    2
   139   184   195    1
   140   184   196    1
   141   134   145    1
   142   134   146    1
   143   134   180    1
   144    84    95    1
   145    84    96    1
   146    34    45    1
   147    34    46    1
   148    34    80    1
   149   181   192    1
   150   181   176    1
   151   131   142    1
   152   131   126    1
   153    81    92    1
   154    81    76    1
   155    31    42    1
   156    31    26    1
   157   139   129    1
   158   189   179    1
   159    39    29    1
   160    89    79    1
   161   179   180    1
   162   179   178    1
   163    79    80    1
   164    79    78    1
   165    29    30    1
   166    29    28    1
   167   129   130    1
   168   129   128    1
   169   132   126    1
   170   132   143    1
   171   182   176    1
   172   182   193    1
   173    82    76    1
   174    82    93    1
   175    32    26    1
   176    32    43    1
   177    76    78    1
   178   126   128    1
   179   176   178    1
   180    26    28    1
   181   190   180    1
   182    40    30    1
   183    90    80    1
   184   140   130    1
   185   130   141    1
   186    30    41    1
   187    80    91    1
   188   180   191    1
   189   128   136    1
   190   128   137    1
   191   178   186    1
   192   178   187    1
   193    78    86    1
   194    78    87    1
   195    28    36    1
   196    28    37    1
