@<TRIPOS>MOLECULE
Lattice="32.018782 0.0 0.0 -14.043870532898428 28.753623292648026 0.0 -8.625062807759862 -14.478403582935226 26.22054754850901" Properties=species:S:1:pos:R:3 i=187 E=-1376.2734194531 pbc="T T T"
 200 200 0 0 0
SMALL
GASTEIGER

@<TRIPOS>ATOM
      1 N           3.4719    2.8092   14.5596 N.pl3   1  UNL1       -0.3135
      2 N           1.5320    3.8028   14.5823 N.pl3   1  UNL1       -0.3166
      3 C           2.8006    3.8828   15.0062 C.3     1  UNL1        0.1250
      4 C           1.3802    2.6397   13.8429 C.2     1  UNL1        0.0072
      5 C           0.4763    4.7574   14.9239 C.3     1  UNL1        0.0020
      6 H           3.2105    4.6680   15.6260 H       1  UNL1        0.0746
      7 H           0.4233    2.3606   13.4157 H       1  UNL1        0.0793
      8 H           0.1694    5.3121   14.0310 H       1  UNL1        0.0428
      9 H          -0.3702    4.1973   15.3286 H       1  UNL1        0.0428
     10 H           0.8546    5.4497   15.6808 H       1  UNL1        0.0428
     11 C           2.6023    2.0167   13.8255 C.2     1  UNL1        0.0074
     12 C           5.7561    4.7616   13.7203 C.3     1  UNL1       -0.0545
     13 H           5.1245    2.9848   15.7992 H       1  UNL1        0.0464
     14 H           4.7442    5.1116   13.4698 H       1  UNL1        0.0263
     15 H           5.9683    5.1410   14.7319 H       1  UNL1        0.0263
     16 C           6.7573    5.3566   12.7179 C.3     1  UNL1       -0.0652
     17 H           6.5461    5.0078   11.6976 H       1  UNL1        0.0230
     18 H           7.7896    5.0666   12.9583 H       1  UNL1        0.0230
     19 H           6.7125    6.4541   12.7099 H       1  UNL1        0.0230
     20 C           4.9091    2.5799   14.8016 C.3     1  UNL1        0.0135
     21 C           5.7965    3.2276   13.7362 C.3     1  UNL1       -0.0374
     22 H           5.0417    1.4942   14.8507 H       1  UNL1        0.0464
     23 H           6.8230    2.8860   13.9376 H       1  UNL1        0.0280
     24 H           5.5380    2.8207   12.7472 H       1  UNL1        0.0280
     25 H           2.9124    1.0810   13.3760 H       1  UNL1        0.0793
     26 N          -0.8406   -4.4300   27.6699 N.pl3   2  UNL2       -0.3135
     27 N          -2.7806   -3.4364   27.6926 N.pl3   2  UNL2       -0.3166
     28 C          -1.5119   -3.3564   28.1164 C.3     2  UNL2        0.1250
     29 C          -2.9324   -4.5995   26.9531 C.2     2  UNL2        0.0072
     30 C          -3.8363   -2.4818   28.0342 C.3     2  UNL2        0.0020
     31 H          -1.1020   -2.5712   28.7363 H       2  UNL2        0.0746
     32 H          -3.8892   -4.8786   26.5260 H       2  UNL2        0.0793
     33 H          -4.1431   -1.9271   27.1413 H       2  UNL2        0.0428
     34 H          -4.6827   -3.0419   28.4389 H       2  UNL2        0.0428
     35 H          -3.4580   -1.7895   28.7911 H       2  UNL2        0.0428
     36 C          -1.7103   -5.2225   26.9358 C.2     2  UNL2        0.0074
     37 C           1.4436   -2.4776   26.8306 C.3     2  UNL2       -0.0545
     38 H           0.8120   -4.2544   28.9094 H       2  UNL2        0.0464
     39 H           0.4317   -2.1276   26.5800 H       2  UNL2        0.0263
     40 H           1.6558   -2.0982   27.8422 H       2  UNL2        0.0263
     41 C           2.4448   -1.8826   25.8281 C.3     2  UNL2       -0.0652
     42 H           2.2336   -2.2314   24.8079 H       2  UNL2        0.0230
     43 H           3.4771   -2.1726   26.0685 H       2  UNL2        0.0230
     44 H           2.3999   -0.7851   25.8202 H       2  UNL2        0.0230
     45 C           0.5966   -4.6593   27.9119 C.3     2  UNL2        0.0135
     46 C           1.4840   -4.0116   26.8464 C.3     2  UNL2       -0.0374
     47 H           0.7292   -5.7450   27.9610 H       2  UNL2        0.0464
     48 H           2.5105   -4.3532   27.0478 H       2  UNL2        0.0280
     49 H           1.2255   -4.4185   25.8575 H       2  UNL2        0.0280
     50 H          -1.4001   -6.1582   26.4862 H       2  UNL2        0.0793
     51 N          -3.5500   17.1860   14.5596 N.pl3   3  UNL3       -0.3135
     52 N          -5.4900   18.1796   14.5823 N.pl3   3  UNL3       -0.3166
     53 C          -4.2213   18.2596   15.0062 C.3     3  UNL3        0.1250
     54 C          -5.6418   17.0165   13.8429 C.2     3  UNL3        0.0072
     55 C          -6.5457   19.1342   14.9239 C.3     3  UNL3        0.0020
     56 H          -3.8115   19.0448   15.6260 H       3  UNL3        0.0746
     57 H          -6.5987   16.7374   13.4157 H       3  UNL3        0.0793
     58 H          -6.8525   19.6889   14.0310 H       3  UNL3        0.0428
     59 H          -7.3921   18.5741   15.3286 H       3  UNL3        0.0428
     60 H          -6.1674   19.8265   15.6808 H       3  UNL3        0.0428
     61 C          -4.4197   16.3935   13.8255 C.2     3  UNL3        0.0074
     62 C          -1.2658   19.1384   13.7203 C.3     3  UNL3       -0.0545
     63 H          -1.8974   17.3616   15.7992 H       3  UNL3        0.0464
     64 H          -2.2777   19.4884   13.4698 H       3  UNL3        0.0263
     65 H          -1.0536   19.5179   14.7319 H       3  UNL3        0.0263
     66 C          -0.2646   19.7334   12.7179 C.3     3  UNL3       -0.0652
     67 H          -0.4758   19.3846   11.6976 H       3  UNL3        0.0230
     68 H           0.7677   19.4434   12.9583 H       3  UNL3        0.0230
     69 H          -0.3095   20.8310   12.7099 H       3  UNL3        0.0230
     70 C          -2.1128   16.9567   14.8016 C.3     3  UNL3        0.0135
     71 C          -1.2254   17.6044   13.7362 C.3     3  UNL3       -0.0374
     72 H          -1.9802   15.8710   14.8507 H       3  UNL3        0.0464
     73 H          -0.1989   17.2628   13.9376 H       3  UNL3        0.0280
     74 H          -1.4839   17.1975   12.7472 H       3  UNL3        0.0280
     75 H          -4.1095   15.4578   13.3760 H       3  UNL3        0.0793
     76 N          -7.8625    9.9468   27.6699 N.pl3   4  UNL4       -0.3135
     77 N          -9.8025   10.9404   27.6926 N.pl3   4  UNL4       -0.3166
     78 C          -8.5339   11.0204   28.1164 C.3     4  UNL4        0.1250
     79 C          -9.9543    9.7773   26.9531 C.2     4  UNL4        0.0072
     80 C         -10.8582   11.8950   28.0342 C.3     4  UNL4        0.0020
     81 H          -8.1240   11.8056   28.7363 H       4  UNL4        0.0746
     82 H         -10.9112    9.4982   26.5260 H       4  UNL4        0.0793
     83 H         -11.1651   12.4497   27.1413 H       4  UNL4        0.0428
     84 H         -11.7046   11.3349   28.4389 H       4  UNL4        0.0428
     85 H         -10.4799   12.5873   28.7911 H       4  UNL4        0.0428
     86 C          -8.7322    9.1543   26.9358 C.2     4  UNL4        0.0074
     87 C          -5.5783   11.8992   26.8306 C.3     4  UNL4       -0.0545
     88 H          -6.2099   10.1224   28.9094 H       4  UNL4        0.0464
     89 H          -6.5903   12.2492   26.5800 H       4  UNL4        0.0263
     90 H          -5.3662   12.2787   27.8422 H       4  UNL4        0.0263
     91 C          -4.5771   12.4942   25.8281 C.3     4  UNL4       -0.0652
     92 H          -4.7884   12.1454   24.8079 H       4  UNL4        0.0230
     93 H          -3.5449   12.2042   26.0685 H       4  UNL4        0.0230
     94 H          -4.6220   13.5918   25.8202 H       4  UNL4        0.0230
     95 C          -6.4254    9.7175   27.9119 C.3     4  UNL4        0.0135
     96 C          -5.5380   10.3652   26.8464 C.3     4  UNL4       -0.0374
     97 H          -6.2928    8.6318   27.9610 H       4  UNL4        0.0464
     98 H          -4.5115   10.0236   27.0478 H       4  UNL4        0.0280
     99 H          -5.7964    9.9583   25.8575 H       4  UNL4        0.0280
    100 H          -8.4221    8.2186   26.4862 H       4  UNL4        0.0793
    101 N          19.4813    2.8092   14.5596 N.pl3   5  UNL5       -0.3135
    102 N          17.5414    3.8028   14.5823 N.pl3   5  UNL5       -0.3166
    103 C          18.8100    3.8828   15.0062 C.3     5  UNL5        0.1250
    104 C          17.3895    2.6397   13.8429 C.2     5  UNL5        0.0072
    105 C          16.4857    4.7574   14.9239 C.3     5  UNL5        0.0020
    106 H          19.2199    4.6680   15.6260 H       5  UNL5        0.0746
    107 H          16.4327    2.3606   13.4157 H       5  UNL5        0.0793
    108 H          16.1788    5.3121   14.0310 H       5  UNL5        0.0428
    109 H          15.6392    4.1973   15.3286 H       5  UNL5        0.0428
    110 H          16.8640    5.4497   15.6808 H       5  UNL5        0.0428
    111 C          18.6117    2.0167   13.8255 C.2     5  UNL5        0.0074
    112 C          21.7655    4.7616   13.7203 C.3     5  UNL5       -0.0545
    113 H          21.1339    2.9848   15.7992 H       5  UNL5        0.0464
    114 H          20.7536    5.1116   13.4698 H       5  UNL5        0.0263
    115 H          21.9777    5.1410   14.7319 H       5  UNL5        0.0263
    116 C          22.7667    5.3566   12.7179 C.3     5  UNL5       -0.0652
    117 H          22.5555    5.0078   11.6976 H       5  UNL5        0.0230
    118 H          23.7990    5.0666   12.9583 H       5  UNL5        0.0230
    119 H          22.7219    6.4541   12.7099 H       5  UNL5        0.0230
    120 C          20.9185    2.5799   14.8016 C.3     5  UNL5        0.0135
    121 C          21.8059    3.2276   13.7362 C.3     5  UNL5       -0.0374
    122 H          21.0511    1.4942   14.8507 H       5  UNL5        0.0464
    123 H          22.8324    2.8860   13.9376 H       5  UNL5        0.0280
    124 H          21.5474    2.8207   12.7472 H       5  UNL5        0.0280
    125 H          18.9218    1.0810   13.3760 H       5  UNL5        0.0793
    126 N          15.1688   -4.4300   27.6699 N.pl3   6  UNL6       -0.3135
    127 N          13.2288   -3.4364   27.6926 N.pl3   6  UNL6       -0.3166
    128 C          14.4974   -3.3564   28.1164 C.3     6  UNL6        0.1250
    129 C          13.0770   -4.5995   26.9531 C.2     6  UNL6        0.0072
    130 C          12.1731   -2.4818   28.0342 C.3     6  UNL6        0.0020
    131 H          14.9073   -2.5712   28.7363 H       6  UNL6        0.0746
    132 H          12.1201   -4.8786   26.5260 H       6  UNL6        0.0793
    133 H          11.8663   -1.9271   27.1413 H       6  UNL6        0.0428
    134 H          11.3267   -3.0419   28.4389 H       6  UNL6        0.0428
    135 H          12.5514   -1.7895   28.7911 H       6  UNL6        0.0428
    136 C          14.2991   -5.2225   26.9358 C.2     6  UNL6        0.0074
    137 C          17.4530   -2.4776   26.8306 C.3     6  UNL6       -0.0545
    138 H          16.8214   -4.2544   28.9094 H       6  UNL6        0.0464
    139 H          16.4410   -2.1276   26.5800 H       6  UNL6        0.0263
    140 H          17.6651   -2.0982   27.8422 H       6  UNL6        0.0263
    141 C          18.4542   -1.8826   25.8281 C.3     6  UNL6       -0.0652
    142 H          18.2430   -2.2314   24.8079 H       6  UNL6        0.0230
    143 H          19.4865   -2.1726   26.0685 H       6  UNL6        0.0230
    144 H          18.4093   -0.7851   25.8202 H       6  UNL6        0.0230
    145 C          16.6060   -4.6593   27.9119 C.3     6  UNL6        0.0135
    146 C          17.4934   -4.0116   26.8464 C.3     6  UNL6       -0.0374
    147 H          16.7386   -5.7450   27.9610 H       6  UNL6        0.0464
    148 H          18.5199   -4.3532   27.0478 H       6  UNL6        0.0280
    149 H          17.2349   -4.4185   25.8575 H       6  UNL6        0.0280
    150 H          14.6092   -6.1582   26.4862 H       6  UNL6        0.0793
    151 N          12.4594   17.1860   14.5596 N.pl3   7  UNL7       -0.3135
    152 N          10.5194   18.1796   14.5823 N.pl3   7  UNL7       -0.3166
    153 C          11.7880   18.2596   15.0062 C.3     7  UNL7        0.1250
    154 C          10.3676   17.0165   13.8429 C.2     7  UNL7        0.0072
    155 C           9.4637   19.1342   14.9239 C.3     7  UNL7        0.0020
    156 H          12.1979   19.0448   15.6260 H       7  UNL7        0.0746
    157 H           9.4107   16.7374   13.4157 H       7  UNL7        0.0793
    158 H           9.1569   19.6889   14.0310 H       7  UNL7        0.0428
    159 H           8.6173   18.5741   15.3286 H       7  UNL7        0.0428
    160 H           9.8420   19.8265   15.6808 H       7  UNL7        0.0428
    161 C          11.5897   16.3935   13.8255 C.2     7  UNL7        0.0074
    162 C          14.7436   19.1384   13.7203 C.3     7  UNL7       -0.0545
    163 H          14.1120   17.3616   15.7992 H       7  UNL7        0.0464
    164 H          13.7316   19.4884   13.4698 H       7  UNL7        0.0263
    165 H          14.9557   19.5179   14.7319 H       7  UNL7        0.0263
    166 C          15.7448   19.7334   12.7179 C.3     7  UNL7       -0.0652
    167 H          15.5336   19.3846   11.6976 H       7  UNL7        0.0230
    168 H          16.7771   19.4434   12.9583 H       7  UNL7        0.0230
    169 H          15.6999   20.8310   12.7099 H       7  UNL7        0.0230
    170 C          13.8966   16.9567   14.8016 C.3     7  UNL7        0.0135
    171 C          14.7840   17.6044   13.7362 C.3     7  UNL7       -0.0374
    172 H          14.0292   15.8710   14.8507 H       7  UNL7        0.0464
    173 H          15.8104   17.2628   13.9376 H       7  UNL7        0.0280
    174 H          14.5255   17.1975   12.7472 H       7  UNL7        0.0280
    175 H          11.8998   15.4578   13.3760 H       7  UNL7        0.0793
    176 N           8.1469    9.9468   27.6699 N.pl3   8  UNL8       -0.3135
    177 N           6.2069   10.9404   27.6926 N.pl3   8  UNL8       -0.3166
    178 C           7.4755   11.0204   28.1164 C.3     8  UNL8        0.1250
    179 C           6.0551    9.7773   26.9531 C.2     8  UNL8        0.0072
    180 C           5.1512   11.8950   28.0342 C.3     8  UNL8        0.0020
    181 H           7.8854   11.8056   28.7363 H       8  UNL8        0.0746
    182 H           5.0982    9.4982   26.5260 H       8  UNL8        0.0793
    183 H           4.8443   12.4497   27.1413 H       8  UNL8        0.0428
    184 H           4.3048   11.3349   28.4389 H       8  UNL8        0.0428
    185 H           5.5295   12.5873   28.7911 H       8  UNL8        0.0428
    186 C           7.2772    9.1543   26.9358 C.2     8  UNL8        0.0074
    187 C          10.4310   11.8992   26.8306 C.3     8  UNL8       -0.0545
    188 H           9.7995   10.1224   28.9094 H       8  UNL8        0.0464
    189 H           9.4191   12.2492   26.5800 H       8  UNL8        0.0263
    190 H          10.6432   12.2787   27.8422 H       8  UNL8        0.0263
    191 C          11.4322   12.4942   25.8281 C.3     8  UNL8       -0.0652
    192 H          11.2210   12.1454   24.8079 H       8  UNL8        0.0230
    193 H          12.4645   12.2042   26.0685 H       8  UNL8        0.0230
    194 H          11.3874   13.5918   25.8202 H       8  UNL8        0.0230
    195 C           9.5840    9.7175   27.9119 C.3     8  UNL8        0.0135
    196 C          10.4714   10.3652   26.8464 C.3     8  UNL8       -0.0374
    197 H           9.7166    8.6318   27.9610 H       8  UNL8        0.0464
    198 H          11.4979   10.0236   27.0478 H       8  UNL8        0.0280
    199 H          10.2129    9.9583   25.8575 H       8  UNL8        0.0280
    200 H           7.5873    8.2186   26.4862 H       8  UNL8        0.0793
@<TRIPOS>BOND
     1   117   116    1
     2    17    16    1
     3   167   166    1
     4    67    66    1
     5    19    16    1
     6    69    66    1
     7   169   166    1
     8   119   116    1
     9   166   168    1
    10   166   162    1
    11    16    18    1
    12    16    12    1
    13    66    68    1
    14    66    62    1
    15   116   118    1
    16   116   112    1
    17   124   121    1
    18    24    21    1
    19    74    71    1
    20   174   171    1
    21    25    11    1
    22   125   111    1
    23    75    61    1
    24   175   161    1
    25   107   104    1
    26    57    54    1
    27   157   154    1
    28     7     4    1
    29    64    62    1
    30   164   162    1
    31    14    12    1
    32   114   112    1
    33    62    71    1
    34    62    65    1
    35   162   171    1
    36   162   165    1
    37    12    21    1
    38    12    15    1
    39   112   121    1
    40   112   115    1
    41    71    73    1
    42    71    70    1
    43   171   173    1
    44   171   170    1
    45   121   123    1
    46   121   120    1
    47    21    23    1
    48    21    20    1
    49   111   104    2
    50   111   101    1
    51    11     4    2
    52    11     1    1
    53   161   154    2
    54   161   151    1
    55    61    54    2
    56    61    51    1
    57   104   102    1
    58   154   152    1
    59    54    52    1
    60     4     2    1
    61   158   155    1
    62   108   105    1
    63     8     5    1
    64    58    55    1
    65   151   170    1
    66   151   153    1
    67    51    70    1
    68    51    53    1
    69   101   120    1
    70   101   103    1
    71     1    20    1
    72     1     3    1
    73   102   105    1
    74   102   103    1
    75     2     5    1
    76     2     3    1
    77   152   155    1
    78   152   153    1
    79    52    55    1
    80    52    53    1
    81   120   122    1
    82   120   113    1
    83    70    72    1
    84    70    63    1
    85    20    22    1
    86    20    13    1
    87   170   172    1
    88   170   163    1
    89   105   109    1
    90   105   110    1
    91    55    59    1
    92    55    60    1
    93     5     9    1
    94     5    10    1
    95   155   159    1
    96   155   160    1
    97   153   156    1
    98     3     6    1
    99    53    56    1
   100   103   106    1
   101   142   141    1
   102    92    91    1
   103   192   191    1
   104    42    41    1
   105   194   191    1
   106    44    41    1
   107   144   141    1
   108    94    91    1
   109    91    93    1
   110    91    87    1
   111   191   193    1
   112   191   187    1
   113   141   143    1
   114   141   137    1
   115    41    43    1
   116    41    37    1
   117   149   146    1
   118    99    96    1
   119   199   196    1
   120    49    46    1
   121   150   136    1
   122   200   186    1
   123    50    36    1
   124   100    86    1
   125    82    79    1
   126   132   129    1
   127    32    29    1
   128   182   179    1
   129    89    87    1
   130    39    37    1
   131   189   187    1
   132   139   137    1
   133    87    96    1
   134    87    90    1
   135   187   196    1
   136   187   190    1
   137    37    46    1
   138    37    40    1
   139   137   146    1
   140   137   140    1
   141    96    98    1
   142    96    95    1
   143   146   148    1
   144   146   145    1
   145    46    48    1
   146    46    45    1
   147   196   198    1
   148   196   195    1
   149    86    79    2
   150    86    76    1
   151   136   129    2
   152   136   126    1
   153    36    29    2
   154    36    26    1
   155   186   179    2
   156   186   176    1
   157    29    27    1
   158   179   177    1
   159    79    77    1
   160   129   127    1
   161    83    80    1
   162   183   180    1
   163   133   130    1
   164    33    30    1
   165    26    45    1
   166    26    28    1
   167   176   195    1
   168   176   178    1
   169    76    95    1
   170    76    78    1
   171   126   145    1
   172   126   128    1
   173    27    30    1
   174    27    28    1
   175   177   180    1
   176   177   178    1
   177    77    80    1
   178    77    78    1
   179   127   130    1
   180   127   128    1
   181   195   197    1
   182   195   188    1
   183    45    47    1
   184    45    38    1
   185    95    97    1
   186    95    88    1
   187   145   147    1
   188   145   138    1
   189   130   134    1
   190   130   135    1
   191    80    84    1
   192    80    85    1
   193   180   184    1
   194   180   185    1
   195    30    34    1
   196    30    35    1
   197    28    31    1
   198   128   131    1
   199    78    81    1
   200   178   181    1
