@<TRIPOS>MOLECULE
Lattice="63.99775284391842 -2.229059772 0.358272888 -26.068117019214007 58.4500383655414 -0.226073676 -18.53858567587444 -28.26574531709237 52.37843698097919" Properties=species:S:1:pos:R:3 i=141 E=-1613.8061966421 pbc="T T T"
 10112 10984 0 0 0
SMALL
GASTEIGER

@<TRIPOS>ATOM
      1 TI         -2.8554    2.2298   11.2464 Ti      1  UNL1        0.0000
      2 TI          7.9750    5.1110    1.8816 Ti      1  UNL1        0.0000
      3 TI          1.2413   -1.7064    9.4264 Ti      1  UNL1        0.0000
      4 TI          2.7524    7.4557    3.6534 Ti      1  UNL1        0.0000
      5 TI          1.7539    9.1340    1.7490 Ti      1  UNL1        0.0000
      6 TI          3.1295   -1.9608   11.3798 Ti      1  UNL1        0.0000
      7 TI         -1.9062    0.4939    9.3549 Ti      1  UNL1        0.0000
      8 TI          5.9872    5.4135    3.7291 Ti      1  UNL1        0.0000
      9 H          -2.3536    6.1268   11.0269 H       1  UNL1        0.0000
     10 H           8.7838    1.2049    2.2023 H       1  UNL1        0.0000
     11 H          -6.8153    1.4731   10.8639 H       1  UNL1        0.0000
     12 H          11.3572    7.1153    2.0822 H       1  UNL1        0.0000
     13 H           4.1051   -5.9953   10.9939 H       1  UNL1        0.0000
     14 H          -2.3047    8.5441    2.0711 H       1  UNL1        0.0000
     15 H           2.2483    7.4972   -0.1241 H       1  UNL1        0.0000
     16 H           6.0995    4.8683    0.1817 H       1  UNL1        0.0000
     17 H           3.6394   -2.6279    5.8687 H       1  UNL1        0.0000
     18 H           1.0290    9.2927    7.2723 H       1  UNL1        0.0000
     19 H          -5.9789    3.8825    8.9990 H       1  UNL1        0.0000
     20 H          10.7298    3.0267    4.1876 H       1  UNL1        0.0000
     21 H          -3.6778    2.4351    5.6652 H       1  UNL1        0.0000
     22 H          -1.3462   10.9619    4.1022 H       1  UNL1        0.0000
     23 H           2.1461   12.2368    2.6045 H       1  UNL1        0.0000
     24 H           8.6260   -0.8139    3.4048 H      49  UNL49       0.0000
     25 H           4.8451    7.1358    2.3148 H       1  UNL1        0.0000
     26 H           0.1605    0.1420   10.7200 H       1  UNL1        0.0000
     27 H           7.3642   -0.0259    9.7694 H       1  UNL1        0.0000
     28 H           5.8831   -0.4950   10.5168 H       1  UNL1        0.0000
     29 H           7.9383    4.4077    8.6705 H       1  UNL1        0.0000
     30 H           7.3686    4.7663    7.0520 H       1  UNL1        0.0000
     31 H           6.8754   -4.9808    9.5794 H       1  UNL1        0.0000
     32 H           5.5962   -3.8802   10.0368 H       1  UNL1        0.0000
     33 C           8.5531    4.3697    4.7451 C.3     1  UNL1        0.0000
     34 C          -3.8160    2.4911    8.3994 C.3     1  UNL1        0.0000
     35 C           3.8218   -2.7171    8.5017 C.3     1  UNL1        0.0000
     36 C           0.8163    9.4262    4.6127 C.3     1  UNL1        0.0000
     37 C           9.4491    3.7654    5.7403 C.ar    1  UNL1        0.0000
     38 C          -4.7479    3.1162    7.4223 C.2     1  UNL1        0.0000
     39 C           4.7619   -3.3315    7.5545 C.2     1  UNL1        0.0000
     40 C          -0.0735   10.0730    5.6125 C.ar    1  UNL1        0.0000
     41 C           9.2003    3.8403    7.1467 C.ar    1  UNL1        0.0000
     42 C          -4.5315    2.9962    6.0343 C.3     1  UNL1        0.0000
     43 C           5.8914   -4.0918    8.0076 C.2     1  UNL1        0.0000
     44 C          -1.1682   10.8460    5.1676 C.ar    1  UNL1        0.0000
     45 C           0.1810    9.9022    6.9674 C.ar    1  UNL1        0.0000
     46 C           4.5142   -3.1994    6.1706 C.3     1  UNL1        0.0000
     47 C          10.5828    3.0664    5.2646 C.ar    1  UNL1        0.0000
     48 C          -5.8481    3.8086    7.9210 C.2     1  UNL1        0.0000
     49 C           8.7648    1.2840    0.0582 C.2     1  UNL1        0.0000
     50 C           2.2951   13.0756    0.0832 C.2     1  UNL1        0.0000
     51 C          11.2493    7.0471   -0.0678 C.2     1  UNL1        0.0000
     52 C          -2.1091    8.5895   -0.0872 C.2     1  UNL1        0.0000
     53 C           3.4992    5.1125    5.6180 C.3     1  UNL1        0.0000
     54 C          -1.2569   -1.9819    7.5361 C.2     1  UNL1        0.0000
     55 C           8.6290    2.7388    0.0350 C.2     1  UNL1        0.0000
     56 C           2.2024   11.6421    0.0457 C.2     1  UNL1        0.0000
     57 C           9.9514    6.4303   -0.0210 C.2     1  UNL1        0.0000
     58 C          -0.7067    9.0039   -0.0628 C.2     1  UNL1        0.0000
     59 C           8.8042    0.6149    1.2879 C.3     1  UNL1        0.0000
     60 C          -2.3426    6.7152   11.9408 C.ar    1  UNL1        0.0000
     61 C          11.9046    7.3219    1.1661 C.2     1  UNL1        0.0000
     62 C          -7.3768    1.2938   11.7793 C.3     1  UNL1        0.0000
     63 C           7.3089    0.2494   11.7938 C.ar    1  UNL1        0.0000
     64 C          -2.8062    8.3591    1.1253 C.3     1  UNL1        0.0000
     65 C           4.1467   -6.5225   11.9429 C.3     1  UNL1        0.0000
     66 C           2.3089   13.8268    1.3125 C.2     1  UNL1        0.0000
     67 N           2.3639   13.2279    2.5506 N.pl3   1  UNL1        0.0000
     68 N           6.7299    0.0666   10.5548 N.pl3   1  UNL1        0.0000
     69 N           8.1194    4.4866    7.6780 N.pl3   1  UNL1        0.0000
     70 N           6.2224   -4.2500    9.3250 N.pl3   1  UNL1        0.0000
     71 O           7.3767    4.7748    5.1109 O.3     1  UNL1        0.0000
     72 O          -3.0470    1.5403    8.0011 O.3     1  UNL1        0.0000
     73 O           4.2032   -2.5927    9.7228 O.3     1  UNL1        0.0000
     74 O           0.7504    9.8559    3.4131 O.3     1  UNL1        0.0000
     75 O           1.5868    8.4690    4.9992 O.3     1  UNL1        0.0000
     76 O           2.6513   -2.3487    8.0962 O.3     1  UNL1        0.0000
     77 O           8.9649    4.4505    3.5334 O.3     1  UNL1        0.0000
     78 O          -3.8580    2.9274    9.5991 O.3     1  UNL1        0.0000
     79 O           6.2924    4.1956    2.5344 O.3     1  UNL1        0.0000
     80 O          -1.3538    2.0542   10.0994 O.3     1  UNL1        0.0000
     81 O           7.2312    6.4829    2.9843 O.3     1  UNL1        0.0000
     82 O          -3.1060    0.3296   10.5921 O.3     1  UNL1        0.0000
     83 O           1.5006   -2.8784   10.6868 O.3     1  UNL1        0.0000
     84 O           3.2690    9.0170    2.9149 O.3     1  UNL1        0.0000
     85 O           2.4545   -0.6169   10.2227 O.3     1  UNL1        0.0000
     86 O           1.5628    7.2599    2.3975 O.3     1  UNL1        0.0000
     87 O           3.8718   -3.7326   11.9889 O.2     1  UNL1        0.0000
     88 O           2.1193   10.9406    1.1409 O.2     1  UNL1        0.0000
     89 O           4.6739   -0.9445   11.9838 O.3     1  UNL1        0.0000
     90 O          -0.1167    9.1049    1.0808 O.2     1  UNL1        0.0000
     91 O           9.4121    6.1301    1.1270 O.2     1  UNL1        0.0000
     92 O          -4.7422    2.1697   11.9148 O.2     1  UNL1        0.0000
     93 O           8.6165    3.3758    1.1564 O.2     1  UNL1        0.0000
     94 O          -2.4740    3.9521   11.9961 O.3     1  UNL1        0.0000
     95 O           4.4842    6.5871    3.0354 O.3     1  UNL1        0.0000
     96 O          -0.2177   -0.4167   10.0165 O.3     1  UNL1        0.0000
     97 O           6.9383    5.3620    0.1026 O.3     1  UNL1        0.0000
     98 O           2.3707    8.4640   -0.0641 O.3     1  UNL1        0.0000
     99 H           3.6092    1.3877    8.4230 H       1  UNL1        0.0000
    100 H          -0.3124   -4.3914    6.7754 H       1  UNL1        0.0000
    101 H           4.3674   10.3025    5.6478 H       1  UNL1        0.0000
    102 H           4.7174    3.1276    6.9923 H       1  UNL1        0.0000
    103 H          -0.2264    3.1700    7.6099 H       1  UNL1        0.0000
    104 H          -3.8104   -1.8900    6.6738 H       1  UNL1        0.0000
    105 H           1.1460    1.4030    8.6787 H       1  UNL1        0.0000
    106 H           0.8877    4.9295    6.2138 H       1  UNL1        0.0000
    107 H           5.4712    8.1265    5.2075 H       1  UNL1        0.0000
    108 H          -8.1223    8.3598    5.6499 H      49  UNL49       0.0000
    109 C           2.8645    4.1214    6.5147 C.ar    1  UNL1        0.0000
    110 C           1.6297    2.1681    8.0736 C.ar    1  UNL1        0.0000
    111 C           6.0423    8.9400    5.6553 C.ar    1  UNL1        0.0000
    112 C          -1.9892   -3.0365    6.7907 C.2     1  UNL1        0.0000
    113 C           1.4684    4.1470    6.6965 C.ar    1  UNL1        0.0000
    114 C           3.0202    2.1534    7.9215 C.ar    1  UNL1        0.0000
    115 C           5.4162   10.1665    5.9063 C.ar    1  UNL1        0.0000
    116 C          -1.3604   -4.2642    6.5129 C.3     1  UNL1        0.0000
    117 C           7.3954    8.7537    5.9596 C.ar    1  UNL1        0.0000
    118 C          -3.3426   -2.8476    6.4556 C.3     1  UNL1        0.0000
    119 C           3.6393    3.1255    7.1355 C.ar    1  UNL1        0.0000
    120 C           0.8532    3.1643    7.4696 C.ar    1  UNL1        0.0000
    121 O           4.7415    4.9760    5.3144 O.3     1  UNL1        0.0000
    122 O          -1.8798   -0.9027    7.8476 O.2     1  UNL1        0.0000
    123 O          -0.0555   -2.2224    7.9176 O.2     1  UNL1        0.0000
    124 O           2.7743    6.0558    5.1367 O.3     1  UNL1        0.0000
    125 N           5.8112   10.4014   25.1384 N.pl3   4  UNL4        0.0000
    126 N           6.2743    9.6693   27.1423 N.pl3   4  UNL4        0.0000
    127 C           6.4314    9.1713   24.9886 C.2     4  UNL4        0.0000
    128 C           6.7220    8.7132   26.2463 C.2     4  UNL4        0.0000
    129 C           7.5890   10.7204   28.9846 C.3     4  UNL4        0.0000
    130 C           5.4365   11.3160   24.0528 C.3     4  UNL4        0.0000
    131 C           5.7308   10.6840   26.4480 C.3     4  UNL4        0.0000
    132 C           6.5279    9.6927   28.5994 C.3     4  UNL4        0.0000
    133 H           6.6880    8.7657   24.0198 H       4  UNL4        0.0000
    134 H           7.2225    7.8113   26.5728 H       4  UNL4        0.0000
    135 H           8.5503   10.4965   28.5095 H       4  UNL4        0.0000
    136 H           6.3156   11.4618   23.4160 H       4  UNL4        0.0000
    137 H           7.2991   11.7329   28.6776 H       4  UNL4        0.0000
    138 H           4.6162   10.8727   23.4830 H       4  UNL4        0.0000
    139 H           7.7130   10.7078   30.0749 H       4  UNL4        0.0000
    140 H           6.8472    8.6785   28.8721 H       4  UNL4        0.0000
    141 H           5.1426   12.2697   24.4978 H       4  UNL4        0.0000
    142 H           5.3590   11.6104   26.8616 H       4  UNL4        0.0000
    143 H           5.5662    9.8838   29.0885 H       4  UNL4        0.0000
    144 N           8.6207   13.4342   24.6918 N.3     5  UNL5        0.0000
    145 C           8.5069   14.8153   27.1034 C.3     5  UNL5        0.0000
    146 C          10.8108   11.9285   24.8797 C.3     5  UNL5        0.0000
    147 O           7.2746   15.5045   24.8647 O.2     5  UNL5        0.0000
    148 O           6.4658   13.4915   26.1312 O.2     5  UNL5        0.0000
    149 O           8.6461   11.1471   23.6236 O.2     5  UNL5        0.0000
    150 O           8.6037   11.2533   26.1322 O.2     5  UNL5        0.0000
    151 F           9.5378   15.6387   26.7965 F       5  UNL5        0.0000
    152 F          11.2682   12.7159   25.8803 F       5  UNL5        0.0000
    153 F           9.0135   13.7512   27.7824 F       5  UNL5        0.0000
    154 F           7.6464   15.4793   27.9295 F       5  UNL5        0.0000
    155 F          11.2987   12.3888   23.6916 F       5  UNL5        0.0000
    156 F          11.2982   10.6738   25.0668 F       5  UNL5        0.0000
    157 S           7.5732   14.2685   25.5699 S.O2    5  UNL5        0.0000
    158 S           8.9493   11.8720   24.8559 S.O2    5  UNL5        0.0000
    159 TI         -7.4901   -4.8367   24.3410 Ti      1  UNL1        0.0000
    160 TI          3.3404   -1.9555   14.9762 Ti      1  UNL1        0.0000
    161 TI         -3.3934   -8.7729   22.5210 Ti      1  UNL1        0.0000
    162 TI         -1.8822    0.3893   16.7480 Ti      1  UNL1        0.0000
    163 TI         -2.8808    2.0676   14.8436 Ti      1  UNL1        0.0000
    164 TI         -1.5052   -9.0272   24.4744 Ti      1  UNL1        0.0000
    165 TI         -6.5409   -6.5726   22.4495 Ti      1  UNL1        0.0000
    166 TI          1.3526   -1.6529   16.8237 Ti      1  UNL1        0.0000
    167 H          -6.9882   -0.9396   24.1216 H       1  UNL1        0.0000
    168 H           4.1492   -5.8615   15.2969 H       1  UNL1        0.0000
    169 H         -11.4500   -5.5933   23.9586 H       1  UNL1        0.0000
    170 H           6.7225    0.0488   15.1769 H       1  UNL1        0.0000
    171 H          -0.5296  -13.0618   24.0885 H       1  UNL1        0.0000
    172 H          -6.9393    1.4777   15.1657 H       1  UNL1        0.0000
    173 H          -2.3863    0.4308   12.9705 H       1  UNL1        0.0000
    174 H           1.4649   -2.1982   13.2763 H       1  UNL1        0.0000
    175 H          -0.9953   -9.6943   18.9633 H       1  UNL1        0.0000
    176 H          -3.6056    2.2263   20.3670 H       1  UNL1        0.0000
    177 H         -10.6135   -3.1839   22.0936 H       1  UNL1        0.0000
    178 H           6.0951   -4.0398   17.2822 H       1  UNL1        0.0000
    179 H          -8.3124   -4.6314   18.7598 H       1  UNL1        0.0000
    180 H          -5.9809    3.8954   17.1969 H       1  UNL1        0.0000
    181 H          -2.4885    5.1704   15.6991 H       1  UNL1        0.0000
    182 H           3.9913   -7.8804   16.4994 H      49  UNL49       0.0000
    183 H           0.2104    0.0694   15.4094 H       1  UNL1        0.0000
    184 H          -4.4741   -6.9245   23.8147 H       1  UNL1        0.0000
    185 H           2.7295   -7.0924   22.8641 H       1  UNL1        0.0000
    186 H           1.2484   -7.5614   23.6114 H       1  UNL1        0.0000
    187 H           3.3037   -2.6587   21.7652 H       1  UNL1        0.0000
    188 H           2.7339   -2.3001   20.1466 H       1  UNL1        0.0000
    189 H           2.2407  -12.0472   22.6740 H       1  UNL1        0.0000
    190 H           0.9616  -10.9466   23.1314 H       1  UNL1        0.0000
    191 C           3.9184   -2.6967   17.8397 C.3     1  UNL1        0.0000
    192 C          -8.4506   -4.5753   21.4940 C.3     1  UNL1        0.0000
    193 C          -0.8129   -9.7836   21.5963 C.3     1  UNL1        0.0000
    194 C          -3.8183    2.3598   17.7074 C.3     1  UNL1        0.0000
    195 C           4.8144   -3.3010   18.8349 C.ar    1  UNL1        0.0000
    196 C          -9.3825   -3.9503   20.5169 C.2     1  UNL1        0.0000
    197 C           0.1273  -10.3979   20.6491 C.2     1  UNL1        0.0000
    198 C          -4.7081    3.0066   18.7071 C.ar    1  UNL1        0.0000
    199 C           4.5657   -3.2261   20.2413 C.ar    1  UNL1        0.0000
    200 C          -9.1661   -4.0703   19.1289 C.3     1  UNL1        0.0000
    201 C           1.2568  -11.1582   21.1022 C.2     1  UNL1        0.0000
    202 C          -5.8029    3.7795   18.2622 C.ar    1  UNL1        0.0000
    203 C          -4.4536    2.8358   20.0620 C.ar    1  UNL1        0.0000
    204 C          -0.1204  -10.2658   19.2652 C.3     1  UNL1        0.0000
    205 C           5.9481   -4.0000   18.3592 C.ar    1  UNL1        0.0000
    206 C         -10.4827   -3.2579   21.0156 C.2     1  UNL1        0.0000
    207 C           4.1302   -5.7824   13.1528 C.2     1  UNL1        0.0000
    208 C          -2.3395    6.0091   13.1778 C.ar    1  UNL1        0.0000
    209 C           6.6146   -0.0193   13.0268 C.ar    1  UNL1        0.0000
    210 C          -6.7437    1.5231   13.0074 C.2     1  UNL1        0.0000
    211 C          -1.1355   -1.9539   18.7126 C.3     1  UNL1        0.0000
    212 C          -5.8916   -9.0483   20.6307 C.2     1  UNL1        0.0000
    213 C           3.9943   -4.3276   13.1296 C.2     1  UNL1        0.0000
    214 C          -2.4323    4.5756   13.1403 C.3     1  UNL1        0.0000
    215 C           5.3168   -0.6362   13.0736 C.3     1  UNL1        0.0000
    216 C          -5.3414    1.9375   13.0319 C.2     1  UNL1        0.0000
    217 C           4.1695   -6.4516   14.3825 C.3     1  UNL1        0.0000
    218 C          -6.9773   -0.3512   25.0354 C.ar    1  UNL1        0.0000
    219 C           7.2699    0.2555   14.2607 C.ar    1  UNL1        0.0000
    220 C         -12.0115   -5.7727   24.8739 C.3     1  UNL1        0.0000
    221 C           2.6743   -6.8170   24.8884 C.ar    1  UNL1        0.0000
    222 C          -7.4409    1.2927   14.2199 C.3     1  UNL1        0.0000
    223 C          -0.4879  -13.5889   25.0375 C.3     1  UNL1        0.0000
    224 C          -2.3258    6.7603   14.4071 C.ar    1  UNL1        0.0000
    225 N          -2.2707    6.1615   15.6452 N.pl3   1  UNL1        0.0000
    226 N           2.0953   -6.9999   23.6494 N.pl3   1  UNL1        0.0000
    227 N           3.4848   -2.5799   20.7726 N.pl3   1  UNL1        0.0000
    228 N           1.5878  -11.3165   22.4196 N.pl3   1  UNL1        0.0000
    229 O           2.7421   -2.2916   18.2055 O.3     1  UNL1        0.0000
    230 O          -7.6816   -5.5262   21.0957 O.3     1  UNL1        0.0000
    231 O          -0.4314   -9.6591   22.8174 O.3     1  UNL1        0.0000
    232 O          -3.8842    2.7894   16.5078 O.3     1  UNL1        0.0000
    233 O          -3.0479    1.4026   18.0938 O.3     1  UNL1        0.0000
    234 O          -1.9833   -9.4151   21.1908 O.3     1  UNL1        0.0000
    235 O           4.3303   -2.6159   16.6280 O.3     1  UNL1        0.0000
    236 O          -8.4926   -4.1390   22.6937 O.3     1  UNL1        0.0000
    237 O           1.6578   -2.8708   15.6290 O.3     1  UNL1        0.0000
    238 O          -5.9884   -5.0122   23.1940 O.3     1  UNL1        0.0000
    239 O           2.5966   -0.5835   16.0789 O.3     1  UNL1        0.0000
    240 O          -7.7406   -6.7369   23.6867 O.3     1  UNL1        0.0000
    241 O          -3.1341   -9.9448   23.7814 O.3     1  UNL1        0.0000
    242 O          -1.3657    1.9506   16.0095 O.3     1  UNL1        0.0000
    243 O          -2.1801   -7.6833   23.3173 O.3     1  UNL1        0.0000
    244 O          -3.0719    0.1935   15.4921 O.3     1  UNL1        0.0000
    245 O          -0.7629  -10.7991   25.0835 O.2     1  UNL1        0.0000
    246 O          -2.5154    3.8742   14.2355 O.3     1  UNL1        0.0000
    247 O           0.0393   -8.0109   25.0784 O.3     1  UNL1        0.0000
    248 O          -4.7513    2.0385   14.1754 O.2     1  UNL1        0.0000
    249 O           4.7775   -0.9363   14.2216 O.3     1  UNL1        0.0000
    250 O          -9.3769   -4.8967   25.0094 O.2     1  UNL1        0.0000
    251 O           3.9819   -3.6907   14.2510 O.2     1  UNL1        0.0000
    252 O          -7.1087   -3.1144   25.0907 O.3     1  UNL1        0.0000
    253 O          -0.1504   -0.4794   16.1300 O.3     1  UNL1        0.0000
    254 O          -4.8524   -7.4832   23.1111 O.3     1  UNL1        0.0000
    255 O           2.3037   -1.7045   13.1972 O.3     1  UNL1        0.0000
    256 O          -2.2640    1.3976   13.0305 O.3     1  UNL1        0.0000
    257 H          -1.0254   -5.6787   21.5176 H       1  UNL1        0.0000
    258 H          -4.9471  -11.4579   19.8700 H       1  UNL1        0.0000
    259 H          -0.2672    3.2361   18.7425 H       1  UNL1        0.0000
    260 H           0.0827   -3.9389   20.0869 H       1  UNL1        0.0000
    261 H          -4.8611   -3.8965   20.7045 H       1  UNL1        0.0000
    262 H          -8.4450   -8.9565   19.7684 H       1  UNL1        0.0000
    263 H          -3.4886   -5.6634   21.7733 H       1  UNL1        0.0000
    264 H          -3.7469   -2.1369   19.3084 H       1  UNL1        0.0000
    265 H           0.8365    1.0601   18.3022 H       1  UNL1        0.0000
    266 H         -12.7570    1.2934   18.7445 H      49  UNL49       0.0000
    267 C          -1.7702   -2.9450   19.6093 C.ar    1  UNL1        0.0000
    268 C          -3.0049   -4.8983   21.1682 C.ar    1  UNL1        0.0000
    269 C           1.4076    1.8736   18.7499 C.ar    1  UNL1        0.0000
    270 C          -6.6238  -10.1030   19.8853 C.2     1  UNL1        0.0000
    271 C          -3.1663   -2.9195   19.7912 C.ar    1  UNL1        0.0000
    272 C          -1.6145   -4.9130   21.0161 C.ar    1  UNL1        0.0000
    273 C           0.7815    3.1001   19.0009 C.ar    1  UNL1        0.0000
    274 C          -5.9951  -11.3306   19.6075 C.3     1  UNL1        0.0000
    275 C           2.7608    1.6873   19.0542 C.ar    1  UNL1        0.0000
    276 C          -7.9773   -9.9140   19.5502 C.3     1  UNL1        0.0000
    277 C          -0.9954   -3.9410   20.2301 C.ar    1  UNL1        0.0000
    278 C          -3.7815   -3.9022   20.5642 C.ar    1  UNL1        0.0000
    279 O           0.1069   -2.0905   18.4090 O.3     1  UNL1        0.0000
    280 O          -6.5145   -7.9692   20.9422 O.2     1  UNL1        0.0000
    281 O          -4.6902   -9.2888   21.0122 O.2     1  UNL1        0.0000
    282 O          -1.8604   -1.0106   18.2313 O.3     1  UNL1        0.0000
    283 N           1.1766    3.3350   38.2330 N.pl3   8  UNL8        0.0000
    284 N           1.6396    2.6028   40.2369 N.pl3   8  UNL8        0.0000
    285 C           1.7968    2.1049   38.0832 C.2     8  UNL8        0.0000
    286 C           2.0874    1.6467   39.3409 C.2     8  UNL8        0.0000
    287 C           2.9543    3.6540   42.0792 C.3     8  UNL8        0.0000
    288 C           0.8018    4.2496   37.1474 C.3     8  UNL8        0.0000
    289 C           1.0961    3.6175   39.5426 C.3     8  UNL8        0.0000
    290 C           1.8933    2.6262   41.6940 C.3     8  UNL8        0.0000
    291 H           2.0534    1.6992   37.1144 H       8  UNL8        0.0000
    292 H           2.5879    0.7449   39.6674 H       8  UNL8        0.0000
    293 H           3.9157    3.4301   41.6041 H       8  UNL8        0.0000
    294 H           1.6809    4.3954   36.5107 H       8  UNL8        0.0000
    295 H           2.6645    4.6664   41.7722 H       8  UNL8        0.0000
    296 H          -0.0184    3.8063   36.5776 H       8  UNL8        0.0000
    297 H           3.0784    3.6414   43.1695 H       8  UNL8        0.0000
    298 H           2.2126    1.6121   41.9668 H       8  UNL8        0.0000
    299 H           0.5080    5.2033   37.5924 H       8  UNL8        0.0000
    300 H           0.7243    4.5440   39.9562 H       8  UNL8        0.0000
    301 H           0.9316    2.8173   42.1831 H       8  UNL8        0.0000
    302 N           3.9860    6.3677   37.7864 N.3     9  UNL9        0.0000
    303 C           3.8723    7.7488   40.1980 C.3     9  UNL9        0.0000
    304 C           6.1762    4.8620   37.9743 C.3     9  UNL9        0.0000
    305 O           2.6399    8.4381   37.9593 O.2     9  UNL9        0.0000
    306 O           1.8312    6.4251   39.2258 O.2     9  UNL9        0.0000
    307 O           4.0115    4.0806   36.7182 O.2     9  UNL9        0.0000
    308 O           3.9691    4.1869   39.2268 O.2     9  UNL9        0.0000
    309 F           4.9031    8.5722   39.8911 F       9  UNL9        0.0000
    310 F           6.6335    5.6494   38.9749 F       9  UNL9        0.0000
    311 F           4.3788    6.6848   40.8771 F       9  UNL9        0.0000
    312 F           3.0118    8.4128   41.0241 F       9  UNL9        0.0000
    313 F           6.6641    5.3224   36.7862 F       9  UNL9        0.0000
    314 F           6.6636    3.6073   38.1614 F       9  UNL9        0.0000
    315 S           2.9386    7.2020   38.6645 S.O2    9  UNL9        0.0000
    316 S           4.3146    4.8056   37.9505 S.O2    9  UNL9        0.0000
    317 TI        -12.1247  -11.9031   37.4356 Ti      1  UNL1        0.0000
    318 TI         -1.2943   -9.0219   28.0708 Ti      1  UNL1        0.0000
    319 TI         -8.0280  -15.8393   35.6156 Ti      1  UNL1        0.0000
    320 TI         -6.5169   -6.6772   29.8426 Ti      1  UNL1        0.0000
    321 TI         -7.5154   -4.9989   27.9382 Ti      1  UNL1        0.0000
    322 TI         -6.1398  -16.0937   37.5690 Ti      1  UNL1        0.0000
    323 TI        -11.1755  -13.6390   35.5441 Ti      1  UNL1        0.0000
    324 TI         -3.2821   -8.7193   29.9183 Ti      1  UNL1        0.0000
    325 H         -11.6229   -8.0060   37.2162 H       1  UNL1        0.0000
    326 H          -0.4855  -12.9279   28.3915 H       1  UNL1        0.0000
    327 H         -16.0846  -12.6597   37.0532 H       1  UNL1        0.0000
    328 H           2.0879   -7.0176   28.2715 H       1  UNL1        0.0000
    329 H          -5.1642  -20.1282   37.1831 H       1  UNL1        0.0000
    330 H         -11.5740   -5.5888   28.2603 H       1  UNL1        0.0000
    331 H          -7.0210   -6.6357   26.0651 H       1  UNL1        0.0000
    332 H          -3.1698   -9.2646   26.3709 H       1  UNL1        0.0000
    333 H          -5.6299  -16.7608   32.0579 H       1  UNL1        0.0000
    334 H          -8.2403   -4.8402   33.4616 H       1  UNL1        0.0000
    335 H         -15.2481  -10.2504   35.1882 H       1  UNL1        0.0000
    336 H           1.4605  -11.1062   30.3768 H       1  UNL1        0.0000
    337 H         -12.9470  -11.6978   31.8544 H       1  UNL1        0.0000
    338 H         -10.6155   -3.1710   30.2915 H       1  UNL1        0.0000
    339 H          -7.1232   -1.8960   28.7937 H       1  UNL1        0.0000
    340 H          -0.6433  -14.9468   29.5940 H      49  UNL49       0.0000
    341 H          -4.4242   -6.9970   28.5040 H       1  UNL1        0.0000
    342 H          -9.1087  -13.9909   36.9093 H       1  UNL1        0.0000
    343 H          -1.9051  -14.1588   35.9587 H       1  UNL1        0.0000
    344 H          -3.3862  -14.6279   36.7060 H       1  UNL1        0.0000
    345 H          -1.3310   -9.7252   34.8598 H       1  UNL1        0.0000
    346 H          -1.9007   -9.3666   33.2412 H       1  UNL1        0.0000
    347 H          -2.3939  -19.1136   35.7686 H       1  UNL1        0.0000
    348 H          -3.6731  -18.0130   36.2260 H       1  UNL1        0.0000
    349 C          -0.7162   -9.7631   30.9343 C.3     1  UNL1        0.0000
    350 C         -13.0853  -11.6417   34.5886 C.3     1  UNL1        0.0000
    351 C          -5.4475  -16.8500   34.6909 C.3     1  UNL1        0.0000
    352 C          -8.4530   -4.7067   30.8020 C.3     1  UNL1        0.0000
    353 C           0.1798  -10.3674   31.9295 C.ar    1  UNL1        0.0000
    354 C         -14.0172  -11.0167   33.6115 C.2     1  UNL1        0.0000
    355 C          -4.5073  -17.4644   33.7437 C.2     1  UNL1        0.0000
    356 C          -9.3428   -4.0599   31.8018 C.ar    1  UNL1        0.0000
    357 C          -0.0690  -10.2925   33.3359 C.ar    1  UNL1        0.0000
    358 C         -13.8008  -11.1367   32.2235 C.3     1  UNL1        0.0000
    359 C          -3.3779  -18.2247   34.1968 C.2     1  UNL1        0.0000
    360 C         -10.4375   -3.2869   31.3568 C.ar    1  UNL1        0.0000
    361 C          -9.0883   -4.2306   33.1566 C.ar    1  UNL1        0.0000
    362 C          -4.7551  -17.3322   32.3598 C.3     1  UNL1        0.0000
    363 C           1.3135  -11.0664   31.4538 C.ar    1  UNL1        0.0000
    364 C         -15.1173  -10.3243   34.1102 C.2     1  UNL1        0.0000
    365 C          -0.5044  -12.8489   26.2474 C.2     1  UNL1        0.0000
    366 C          -6.9742   -1.0573   26.2724 C.ar    1  UNL1        0.0000
    367 C           1.9800   -7.0858   26.1214 C.ar    1  UNL1        0.0000
    368 C         -11.3783   -5.5433   26.1020 C.2     1  UNL1        0.0000
    369 C          -5.7701   -9.0204   31.8072 C.3     1  UNL1        0.0000
    370 C         -10.5262  -16.1147   33.7253 C.2     1  UNL1        0.0000
    371 C          -0.6403  -11.3940   26.2242 C.2     1  UNL1        0.0000
    372 C          -7.0669   -2.4908   26.2349 C.3     1  UNL1        0.0000
    373 C           0.6822   -7.7026   26.1683 C.3     1  UNL1        0.0000
    374 C          -9.9760   -5.1290   26.1265 C.2     1  UNL1        0.0000
    375 C          -0.4651  -13.5180   27.4771 C.3     1  UNL1        0.0000
    376 C         -11.6119   -7.4176   38.1301 C.ar    1  UNL1        0.0000
    377 C           2.6353   -6.8110   27.3554 C.ar    1  UNL1        0.0000
    378 C         -16.6461  -12.8391   37.9685 C.3     1  UNL1        0.0000
    379 C          -1.9604  -13.8835   37.9830 C.ar    1  UNL1        0.0000
    380 C         -12.0755   -5.7737   27.3145 C.3     1  UNL1        0.0000
    381 C          -5.1226  -20.6554   38.1321 C.3     1  UNL1        0.0000
    382 C          -6.9604   -0.3061   27.5017 C.ar    1  UNL1        0.0000
    383 N          -6.9053   -0.9049   28.7398 N.pl3   1  UNL1        0.0000
    384 N          -2.5394  -14.0663   36.7440 N.pl3   1  UNL1        0.0000
    385 N          -1.1498   -9.6463   33.8672 N.pl3   1  UNL1        0.0000
    386 N          -3.0469  -18.3829   35.5142 N.pl3   1  UNL1        0.0000
    387 O          -1.8925   -9.3580   31.3001 O.3     1  UNL1        0.0000
    388 O         -12.3163  -12.5926   34.1903 O.3     1  UNL1        0.0000
    389 O          -5.0661  -16.7255   35.9120 O.3     1  UNL1        0.0000
    390 O          -8.5188   -4.2770   29.6024 O.3     1  UNL1        0.0000
    391 O          -7.6825   -5.6639   31.1884 O.3     1  UNL1        0.0000
    392 O          -6.6180  -16.4816   34.2854 O.3     1  UNL1        0.0000
    393 O          -0.3043   -9.6824   29.7226 O.3     1  UNL1        0.0000
    394 O         -13.1273  -11.2055   35.7883 O.3     1  UNL1        0.0000
    395 O          -2.9769   -9.9373   28.7236 O.3     1  UNL1        0.0000
    396 O         -10.6231  -12.0786   36.2887 O.3     1  UNL1        0.0000
    397 O          -2.0381   -7.6500   29.1736 O.3     1  UNL1        0.0000
    398 O         -12.3753  -13.8033   36.7813 O.3     1  UNL1        0.0000
    399 O          -7.7687  -17.0113   36.8761 O.3     1  UNL1        0.0000
    400 O          -6.0003   -5.1159   29.1041 O.3     1  UNL1        0.0000
    401 O          -6.8148  -14.7498   36.4119 O.3     1  UNL1        0.0000
    402 O          -7.7065   -6.8730   28.5867 O.3     1  UNL1        0.0000
    403 O          -5.3975  -17.8655   38.1781 O.2     1  UNL1        0.0000
    404 O          -7.1500   -3.1922   27.3301 O.3     1  UNL1        0.0000
    405 O          -4.5954  -15.0773   38.1730 O.3     1  UNL1        0.0000
    406 O          -9.3860   -5.0280   27.2700 O.2     1  UNL1        0.0000
    407 O           0.1428   -8.0028   27.3162 O.3     1  UNL1        0.0000
    408 O         -14.0115  -11.9632   38.1041 O.2     1  UNL1        0.0000
    409 O          -0.6527  -10.7571   27.3456 O.2     1  UNL1        0.0000
    410 O         -11.7433  -10.1808   38.1853 O.3     1  UNL1        0.0000
    411 O          -4.7851   -7.5458   29.2246 O.3     1  UNL1        0.0000
    412 O          -9.4870  -14.5496   36.2057 O.3     1  UNL1        0.0000
    413 O          -2.3310   -8.7709   26.2918 O.3     1  UNL1        0.0000
    414 O          -6.8986   -5.6689   26.1251 O.3     1  UNL1        0.0000
    415 H          -5.6601  -12.7451   34.6122 H       1  UNL1        0.0000
    416 H          -9.5817  -18.5243   32.9647 H       1  UNL1        0.0000
    417 H          -4.9019   -3.8304   31.8371 H       1  UNL1        0.0000
    418 H          -4.5519  -11.0053   33.1815 H       1  UNL1        0.0000
    419 H          -9.4957  -10.9629   33.7991 H       1  UNL1        0.0000
    420 H         -13.0797  -16.0229   32.8630 H       1  UNL1        0.0000
    421 H          -8.1232  -12.7298   34.8679 H       1  UNL1        0.0000
    422 H          -8.3816   -9.2034   32.4030 H       1  UNL1        0.0000
    423 H          -3.7981   -6.0064   31.3968 H       1  UNL1        0.0000
    424 H         -17.3916   -5.7730   31.8391 H      49  UNL49       0.0000
    425 C          -6.4048  -10.0115   32.7039 C.ar    1  UNL1        0.0000
    426 C          -7.6396  -11.9647   34.2628 C.ar    1  UNL1        0.0000
    427 C          -3.2270   -5.1929   31.8445 C.ar    1  UNL1        0.0000
    428 C         -11.2585  -17.1694   32.9799 C.2     1  UNL1        0.0000
    429 C          -7.8009   -9.9859   32.8858 C.ar    1  UNL1        0.0000
    430 C          -6.2491  -11.9794   34.1107 C.ar    1  UNL1        0.0000
    431 C          -3.8531   -3.9664   32.0955 C.ar    1  UNL1        0.0000
    432 C         -10.6297  -18.3970   32.7021 C.3     1  UNL1        0.0000
    433 C          -1.8739   -5.3791   32.1488 C.ar    1  UNL1        0.0000
    434 C         -12.6119  -16.9804   32.6448 C.3     1  UNL1        0.0000
    435 C          -5.6300  -11.0074   33.3247 C.ar    1  UNL1        0.0000
    436 C          -8.4161  -10.9686   33.6588 C.ar    1  UNL1        0.0000
    437 O          -4.5278   -9.1569   31.5036 O.3     1  UNL1        0.0000
    438 O         -11.1491  -15.0356   34.0368 O.2     1  UNL1        0.0000
    439 O          -9.3248  -16.3553   34.1068 O.2     1  UNL1        0.0000
    440 O          -6.4950   -8.0771   31.3259 O.3     1  UNL1        0.0000
    441 N          -3.4581   -3.7314   51.3276 N.pl3  12  UNL12       0.0000
    442 N          -2.9950   -4.4636   53.3315 N.pl3  12  UNL12       0.0000
    443 C          -2.8379   -4.9616   51.1779 C.2    12  UNL12       0.0000
    444 C          -2.5473   -5.4197   52.4355 C.2    12  UNL12       0.0000
    445 C          -1.6803   -3.4125   55.1738 C.3    12  UNL12       0.0000
    446 C          -3.8328   -2.8168   50.2420 C.3    12  UNL12       0.0000
    447 C          -3.5385   -3.4489   52.6372 C.3    12  UNL12       0.0000
    448 C          -2.7414   -4.4402   54.7886 C.3    12  UNL12       0.0000
    449 H          -2.5813   -5.3672   50.2090 H      12  UNL12       0.0000
    450 H          -2.0468   -6.3216   52.7620 H      12  UNL12       0.0000
    451 H          -0.7190   -3.6363   54.6987 H      12  UNL12       0.0000
    452 H          -2.9537   -2.6711   49.6053 H      12  UNL12       0.0000
    453 H          -1.9702   -2.4000   54.8668 H      12  UNL12       0.0000
    454 H          -4.6530   -3.2602   49.6722 H      12  UNL12       0.0000
    455 H          -1.5563   -3.4250   56.2641 H      12  UNL12       0.0000
    456 H          -2.4220   -5.4543   55.0614 H      12  UNL12       0.0000
    457 H          -4.1267   -1.8632   50.6870 H      12  UNL12       0.0000
    458 H          -3.9103   -2.5225   53.0508 H      12  UNL12       0.0000
    459 H          -3.7031   -4.2491   55.2777 H      12  UNL12       0.0000
    460 N          -0.6486   -0.6987   50.8810 N.3    13  UNL13       0.0000
    461 C          -0.7624    0.6824   53.2926 C.3    13  UNL13       0.0000
    462 C           1.5415   -2.2044   51.0689 C.3    13  UNL13       0.0000
    463 O          -1.9947    1.3717   51.0539 O.2    13  UNL13       0.0000
    464 O          -2.8035   -0.6413   52.3204 O.2    13  UNL13       0.0000
    465 O          -0.6232   -2.9858   49.8128 O.2    13  UNL13       0.0000
    466 O          -0.6655   -2.8796   52.3214 O.2    13  UNL13       0.0000
    467 F           0.2685    1.5058   52.9857 F      13  UNL13       0.0000
    468 F           1.9989   -1.4170   52.0696 F      13  UNL13       0.0000
    469 F          -0.2558   -0.3816   53.9717 F      13  UNL13       0.0000
    470 F          -1.6229    1.3464   54.1187 F      13  UNL13       0.0000
    471 F           2.0294   -1.7441   49.8808 F      13  UNL13       0.0000
    472 F           2.0289   -3.4591   51.2560 F      13  UNL13       0.0000
    473 S          -1.6961    0.1356   51.7591 S.O2   13  UNL13       0.0000
    474 S          -0.3200   -2.2609   51.0451 S.O2   13  UNL13       0.0000
    475 TI        -16.7594  -18.9696   50.5302 Ti     14  UNL14       0.0000
    476 TI         -5.9289  -16.0883   41.1654 Ti      1  UNL1        0.0000
    477 TI        -12.6627  -22.9057   48.7102 Ti     14  UNL14       0.0000
    478 TI        -11.1515  -13.7436   42.9372 Ti      1  UNL1        0.0000
    479 TI        -12.1501  -12.0653   41.0328 Ti      1  UNL1        0.0000
    480 TI        -10.7745  -23.1601   50.6636 Ti     14  UNL14       0.0000
    481 TI        -15.8102  -20.7054   48.6387 Ti     14  UNL14       0.0000
    482 TI         -7.9167  -15.7858   43.0129 Ti      1  UNL1        0.0000
    483 H         -16.2575  -15.0725   50.3108 H       1  UNL1        0.0000
    484 H          -5.1201  -19.9944   41.4861 H       1  UNL1        0.0000
    485 H         -20.7193  -19.7262   50.1478 H       2  UNL2        0.0000
    486 H          -2.5468  -14.0840   41.3661 H       1  UNL1        0.0000
    487 H          -9.7989  -27.1946   50.2777 H       4  UNL4        0.0000
    488 H         -16.2086  -12.6552   41.3549 H       1  UNL1        0.0000
    489 H         -11.6556  -13.7021   39.1597 H       1  UNL1        0.0000
    490 H          -7.8044  -16.3310   39.4655 H       1  UNL1        0.0000
    491 H         -10.2646  -23.8272   45.1525 H      14  UNL14       0.0000
    492 H         -12.8749  -11.9066   46.5562 H       1  UNL1        0.0000
    493 H         -19.8828  -17.3168   48.2828 H      14  UNL14       0.0000
    494 H          -3.1741  -18.1727   43.4714 H       1  UNL1        0.0000
    495 H         -17.5817  -18.7643   44.9490 H      14  UNL14       0.0000
    496 H         -15.2501  -10.2374   43.3861 H       1  UNL1        0.0000
    497 H         -11.7578   -8.9625   41.8883 H       1  UNL1        0.0000
    498 H          -5.2780  -22.0132   42.6886 H      49  UNL49       0.0000
    499 H          -9.0589  -14.0635   41.5986 H       1  UNL1        0.0000
    500 H         -13.7434  -21.0574   50.0039 H      14  UNL14       0.0000
    501 H          -6.5397  -21.2252   49.0533 H       3  UNL3        0.0000
    502 H          -8.0209  -21.6943   49.8006 H       3  UNL3        0.0000
    503 H          -5.9656  -16.7916   47.9544 H       1  UNL1        0.0000
    504 H          -6.5353  -16.4330   46.3358 H       1  UNL1        0.0000
    505 H          -7.0286  -26.1801   48.8632 H      14  UNL14       0.0000
    506 H          -8.3077  -25.0795   49.3206 H      14  UNL14       0.0000
    507 C          -5.3509  -16.8296   44.0289 C.3     1  UNL1        0.0000
    508 C         -17.7199  -18.7082   47.6832 C.3    14  UNL14       0.0000
    509 C         -10.0822  -23.9164   47.7855 C.3    14  UNL14       0.0000
    510 C         -13.0876  -11.7731   43.8966 C.3     1  UNL1        0.0000
    511 C          -4.4548  -17.4339   45.0241 C.ar    1  UNL1        0.0000
    512 C         -18.6518  -18.0831   46.7061 C.2    14  UNL14       0.0000
    513 C          -9.1420  -24.5308   46.8383 C.2    14  UNL14       0.0000
    514 C         -13.9774  -11.1263   44.8964 C.ar    1  UNL1        0.0000
    515 C          -4.7036  -17.3590   46.4306 C.ar    1  UNL1        0.0000
    516 C         -18.4354  -18.2031   45.3181 C.3    14  UNL14       0.0000
    517 C          -8.0125  -25.2911   47.2914 C.2    14  UNL14       0.0000
    518 C         -15.0722  -10.3533   44.4514 C.ar    1  UNL1        0.0000
    519 C         -13.7229  -11.2971   46.2513 C.ar    1  UNL1        0.0000
    520 C          -9.3897  -24.3987   45.4544 C.3    14  UNL14       0.0000
    521 C          -3.3212  -18.1329   44.5484 C.ar    1  UNL1        0.0000
    522 C         -19.7520  -17.3907   47.2048 C.2    14  UNL14       0.0000
    523 C          -5.1391  -19.9153   39.3420 C.2     1  UNL1        0.0000
    524 C         -11.6088   -8.1237   39.3670 C.ar    1  UNL1        0.0000
    525 C          -2.6547  -14.1522   39.2160 C.ar    1  UNL1        0.0000
    526 C         -16.0130  -12.6098   39.1966 C.2     1  UNL1        0.0000
    527 C         -10.4048  -16.0868   44.9018 C.3     1  UNL1        0.0000
    528 C         -15.1609  -23.1812   46.8199 C.2    14  UNL14       0.0000
    529 C          -5.2749  -18.4605   39.3188 C.2     1  UNL1        0.0000
    530 C         -11.7016   -9.5572   39.3295 C.3     1  UNL1        0.0000
    531 C          -3.9525  -14.7690   39.2629 C.3     1  UNL1        0.0000
    532 C         -14.6107  -12.1954   39.2211 C.2     1  UNL1        0.0000
    533 C          -5.0997  -20.5844   40.5717 C.3     1  UNL1        0.0000
    534 C         -16.2466  -14.4841   51.2247 C.2     1  UNL1        0.0000
    535 C          -1.9994  -13.8774   40.4500 C.ar    1  UNL1        0.0000
    536 C         -21.2808  -19.9056   51.0631 C.3    16  UNL16       0.0000
    537 C          -6.5950  -20.9499   51.0776 C.2     3  UNL3        0.0000
    538 C         -16.7102  -12.8402   40.4091 C.3     1  UNL1        0.0000
    539 C          -9.7572  -27.7218   51.2267 C.3    17  UNL17       0.0000
    540 C         -11.5950   -7.3725   40.5963 C.ar    1  UNL1        0.0000
    541 N         -11.5400   -7.9714   41.8345 N.pl3   1  UNL1        0.0000
    542 N          -7.1740  -21.1328   49.8387 N.pl3   3  UNL3        0.0000
    543 N          -5.7845  -16.7127   46.9618 N.pl3   1  UNL1        0.0000
    544 N          -7.6815  -25.4493   48.6088 N.pl3  14  UNL14       0.0000
    545 O          -6.5272  -16.4245   44.3947 O.3     1  UNL1        0.0000
    546 O         -16.9509  -19.6590   47.2849 O.3    14  UNL14       0.0000
    547 O          -9.7007  -23.7920   49.0066 O.3    14  UNL14       0.0000
    548 O         -13.1535  -11.3434   42.6970 O.3     1  UNL1        0.0000
    549 O         -12.3172  -12.7303   44.2830 O.3     1  UNL1        0.0000
    550 O         -11.2526  -23.5480   47.3800 O.3    14  UNL14       0.0000
    551 O          -4.9390  -16.7488   42.8172 O.3     1  UNL1        0.0000
    552 O         -17.7619  -18.2719   48.8829 O.3    14  UNL14       0.0000
    553 O          -7.6115  -17.0037   41.8182 O.3     1  UNL1        0.0000
    554 O         -15.2577  -19.1451   49.3833 O.3    14  UNL14       0.0000
    555 O          -6.6727  -14.7164   42.2682 O.3     1  UNL1        0.0000
    556 O         -17.0099  -20.8698   49.8759 O.3    14  UNL14       0.0000
    557 O         -12.4034  -24.0777   49.9707 O.3    14  UNL14       0.0000
    558 O         -10.6350  -12.1823   42.1987 O.3     1  UNL1        0.0000
    559 O         -11.4494  -21.8162   49.5065 O.3    14  UNL14       0.0000
    560 O         -12.3412  -13.9394   41.6813 O.3     1  UNL1        0.0000
    561 O         -10.0322  -24.9319   51.2727 O.3    14  UNL14       0.0000
    562 O         -11.7847  -10.2587   40.4247 O.3     1  UNL1        0.0000
    563 O          -9.2300  -22.1438   51.2676 O.3    14  UNL14       0.0000
    564 O         -14.0206  -12.0944   40.3646 O.2     1  UNL1        0.0000
    565 O          -4.4918  -15.0692   40.4109 O.3     1  UNL1        0.0000
    566 O         -18.6462  -19.0296   51.1987 O.3    14  UNL14       0.0000
    567 O          -5.2874  -17.8235   40.4403 O.2     1  UNL1        0.0000
    568 O         -16.3780  -17.2473   51.2799 O.3    14  UNL14       0.0000
    569 O          -9.4197  -14.6122   42.3193 O.3     1  UNL1        0.0000
    570 O         -14.1216  -21.6160   49.3003 O.3    14  UNL14       0.0000
    571 O          -6.9656  -15.8374   39.3865 O.3     1  UNL1        0.0000
    572 O         -11.5333  -12.7353   39.2197 O.3     1  UNL1        0.0000
    573 H         -10.2947  -19.8116   47.7068 H       1  UNL1        0.0000
    574 H         -14.2164  -25.5908   46.0593 H      14  UNL14       0.0000
    575 H          -9.5365  -10.8968   44.9317 H       1  UNL1        0.0000
    576 H          -9.1866  -18.0717   46.2762 H       1  UNL1        0.0000
    577 H         -14.1304  -18.0294   46.8937 H       1  UNL1        0.0000
    578 H         -17.7143  -23.0893   45.9576 H      14  UNL14       0.0000
    579 H         -12.7579  -19.7963   47.9625 H       1  UNL1        0.0000
    580 H         -13.0162  -16.2698   45.4976 H       1  UNL1        0.0000
    581 H          -8.4328  -13.0728   44.4914 H       1  UNL1        0.0000
    582 H         -22.0263  -12.8395   44.9338 H      49  UNL49       0.0000
    583 C         -11.0395  -17.0779   45.7986 C.ar    1  UNL1        0.0000
    584 C         -12.2742  -19.0312   47.3574 C.ar    1  UNL1        0.0000
    585 C          -7.8617  -12.2593   44.9392 C.ar    1  UNL1        0.0000
    586 C         -15.8931  -24.2358   46.0745 C.2    14  UNL14       0.0000
    587 C         -12.4356  -17.0524   45.9804 C.ar    1  UNL1        0.0000
    588 C         -10.8838  -19.0459   47.2053 C.ar    1  UNL1        0.0000
    589 C          -8.4877  -11.0328   45.1901 C.ar    1  UNL1        0.0000
    590 C         -15.2643  -25.4635   45.7967 C.3    14  UNL14       0.0000
    591 C          -6.5085  -12.4456   45.2434 C.ar    1  UNL1        0.0000
    592 C         -17.2465  -24.0469   45.7394 C.3    14  UNL14       0.0000
    593 C         -10.2647  -18.0738   46.4193 C.ar    1  UNL1        0.0000
    594 C         -13.0507  -18.0350   46.7534 C.ar    1  UNL1        0.0000
    595 O          -9.1624  -16.2233   44.5982 O.3     1  UNL1        0.0000
    596 O         -15.7838  -22.1020   47.1314 O.2    14  UNL14       0.0000
    597 O         -13.9595  -23.4217   47.2014 O.2    14  UNL14       0.0000
    598 O         -11.1297  -15.1435   44.4205 O.3     1  UNL1        0.0000
    599 N          -8.0927  -10.7979   64.4222 N.pl3  19  UNL19       0.0000
    600 N          -7.6296  -11.5301   66.4261 N.pl3  19  UNL19       0.0000
    601 C          -7.4725  -12.0280   64.2725 C.2    19  UNL19       0.0000
    602 C          -7.1819  -12.4861   65.5301 C.2    19  UNL19       0.0000
    603 C          -6.3150  -10.4789   68.2684 C.3    19  UNL19       0.0000
    604 C          -8.4675   -9.8833   63.3367 C.3    19  UNL19       0.0000
    605 C          -8.1732  -10.5153   65.7319 C.3    19  UNL19       0.0000
    606 C          -7.3760  -11.5066   67.8832 C.3    19  UNL19       0.0000
    607 H          -7.2159  -12.4336   63.3036 H      19  UNL19       0.0000
    608 H          -6.6814  -13.3880   65.8566 H      19  UNL19       0.0000
    609 H          -5.3536  -10.7028   67.7933 H      19  UNL19       0.0000
    610 H          -7.5884   -9.7375   62.6999 H      19  UNL19       0.0000
    611 H          -6.6048   -9.4664   67.9614 H      19  UNL19       0.0000
    612 H          -9.2877  -10.3266   62.7668 H      19  UNL19       0.0000
    613 H          -6.1909  -10.4915   69.3587 H      19  UNL19       0.0000
    614 H          -7.0567  -12.5208   68.1560 H      19  UNL19       0.0000
    615 H          -8.7613   -8.9296   63.7816 H      19  UNL19       0.0000
    616 H          -8.5450   -9.5889   66.1454 H      19  UNL19       0.0000
    617 H          -8.3377  -11.3155   68.3723 H      19  UNL19       0.0000
    618 N          -5.2832   -7.7651   63.9756 N.3    20  UNL20       0.0000
    619 C          -5.3970   -6.3840   66.3872 C.3    20  UNL20       0.0000
    620 C          -3.0931   -9.2708   64.1635 C.3    20  UNL20       0.0000
    621 O          -6.6294   -5.6948   64.1485 O.2    20  UNL20       0.0000
    622 O          -7.4381   -7.7078   65.4150 O.2    20  UNL20       0.0000
    623 O          -5.2578  -10.0522   62.9074 O.2    20  UNL20       0.0000
    624 O          -5.3002   -9.9460   65.4160 O.2    20  UNL20       0.0000
    625 F          -4.3662   -5.5607   66.0803 F      20  UNL20       0.0000
    626 F          -2.6358   -8.4834   65.1642 F      20  UNL20       0.0000
    627 F          -4.8905   -7.4481   67.0663 F      20  UNL20       0.0000
    628 F          -6.2575   -5.7200   67.2133 F      20  UNL20       0.0000
    629 F          -2.6052   -8.8105   62.9754 F      20  UNL20       0.0000
    630 F          -2.6057  -10.5255   64.3506 F      20  UNL20       0.0000
    631 S          -6.3307   -6.9308   64.8537 S.O2   20  UNL20       0.0000
    632 S          -4.9546   -9.3273   64.1397 S.O2   20  UNL20       0.0000
    633 TI         -9.3725   16.8423   11.1899 Ti      1  UNL1        0.0000
    634 TI          1.4580   19.7235    1.8251 Ti      1  UNL1        0.0000
    635 TI         -5.2758   12.9061    9.3699 Ti      1  UNL1        0.0000
    636 TI         -3.7646   22.0682    3.5969 Ti      1  UNL1        0.0000
    637 TI         -4.7632   23.7465    1.6925 Ti      1  UNL1        0.0000
    638 TI         -3.3876   12.6517   11.3233 Ti      1  UNL1        0.0000
    639 TI         -8.4233   15.1064    9.2984 Ti      1  UNL1        0.0000
    640 TI         -0.5298   20.0260    3.6725 Ti      1  UNL1        0.0000
    641 H          -8.8706   20.7394   10.9704 H       1  UNL1        0.0000
    642 H           2.2668   15.8174    2.1458 H       1  UNL1        0.0000
    643 H         -13.3324   16.0856   10.8074 H       1  UNL1        0.0000
    644 H           4.8402   21.7278    2.0257 H       1  UNL1        0.0000
    645 H          -2.4120    8.6172   10.9373 H       1  UNL1        0.0000
    646 H          -8.8217   23.1566    2.0145 H       1  UNL1        0.0000
    647 H          -4.2687   22.1097   -0.1806 H       1  UNL1        0.0000
    648 H          -0.4175   19.4808    0.1251 H       1  UNL1        0.0000
    649 H          -2.8777   11.9846    5.8122 H       1  UNL1        0.0000
    650 H          -5.4880   23.9052    7.2158 H       1  UNL1        0.0000
    651 H         -12.4959   18.4950    8.9425 H       1  UNL1        0.0000
    652 H           4.2128   17.6392    4.1311 H       1  UNL1        0.0000
    653 H         -10.1948   17.0476    5.6087 H       1  UNL1        0.0000
    654 H          -7.8632   25.5744    4.0457 H       1  UNL1        0.0000
    655 H          -4.3709   26.8494    2.5479 H       1  UNL1        0.0000
    656 H           2.1090   13.7986    3.3482 H       1  UNL1        0.0000
    657 H          -1.6720   21.7483    2.2582 H       1  UNL1        0.0000
    658 H          -6.3565   14.7545   10.6635 H       1  UNL1        0.0000
    659 H           0.8472   14.5866    9.7129 H       1  UNL1        0.0000
    660 H          -0.6340   14.1175   10.4603 H       1  UNL1        0.0000
    661 H           1.4213   19.0202    8.6140 H       1  UNL1        0.0000
    662 H           0.8516   19.3788    6.9955 H       1  UNL1        0.0000
    663 H           0.3584    9.6318    9.5229 H       1  UNL1        0.0000
    664 H          -0.9208   10.7323    9.9803 H       1  UNL1        0.0000
    665 C           2.0360   18.9822    4.6886 C.3     1  UNL1        0.0000
    666 C         -10.3330   17.1037    8.3428 C.3     1  UNL1        0.0000
    667 C          -2.6953   11.8954    8.4452 C.3     1  UNL1        0.0000
    668 C          -5.7007   24.0387    4.5562 C.3     1  UNL1        0.0000
    669 C           2.9321   18.3779    5.6838 C.ar    1  UNL1        0.0000
    670 C         -11.2649   17.7287    7.3658 C.2     1  UNL1        0.0000
    671 C          -1.7551   11.2810    7.4980 C.ar    1  UNL1        0.0000
    672 C          -6.5905   24.6855    5.5560 C.ar    1  UNL1        0.0000
    673 C           2.6833   18.4528    7.0902 C.ar    1  UNL1        0.0000
    674 C         -11.0485   17.6087    5.9778 C.3     1  UNL1        0.0000
    675 C          -0.6256   10.5207    7.9511 C.ar    1  UNL1        0.0000
    676 C          -7.6853   25.4585    5.1111 C.ar    1  UNL1        0.0000
    677 C          -6.3360   24.5148    6.9109 C.ar    1  UNL1        0.0000
    678 C          -2.0028   11.4132    6.1141 C.ar    1  UNL1        0.0000
    679 C           4.0657   17.6789    5.2081 C.ar    1  UNL1        0.0000
    680 C         -12.3651   18.4211    7.8645 C.2     1  UNL1        0.0000
    681 C           2.2478   15.8965    0.0017 C.2     1  UNL1        0.0000
    682 C          -4.2219   27.6881    0.0267 C.2     1  UNL1        0.0000
    683 C           4.7323   21.6596   -0.1243 C.2     1  UNL1        0.0000
    684 C          -8.6261   23.2021   -0.1437 C.2     1  UNL1        0.0000
    685 C          -3.0179   19.7250    5.5615 C.3     1  UNL1        0.0000
    686 C          -7.7740   12.6307    7.4796 C.2     1  UNL1        0.0000
    687 C           2.1120   17.3514   -0.0215 C.2     1  UNL1        0.0000
    688 C          -4.3147   26.2546   -0.0108 C.2     1  UNL1        0.0000
    689 C           3.4344   21.0428   -0.0775 C.2     1  UNL1        0.0000
    690 C          -7.2238   23.6164   -0.1193 C.2     1  UNL1        0.0000
    691 C           2.2872   15.2274    1.2313 C.2     1  UNL1        0.0000
    692 C          -8.8597   21.3278   11.8843 C.ar    1  UNL1        0.0000
    693 C           5.3876   21.9344    1.1096 C.2     1  UNL1        0.0000
    694 C         -13.8939   15.9063   11.7228 C.3     1  UNL1        0.0000
    695 C           0.7919   14.8619   11.7373 C.ar    1  UNL1        0.0000
    696 C          -9.3233   22.9716    1.0687 C.3     1  UNL1        0.0000
    697 C          -2.3703    8.0900   11.8864 C.ar    1  UNL1        0.0000
    698 C          -4.2081   28.4393    1.2559 C.2     1  UNL1        0.0000
    699 N          -4.1531   27.8404    2.4941 N.pl3   1  UNL1        0.0000
    700 N           0.2129   14.6791   10.4983 N.pl3   1  UNL1        0.0000
    701 N           1.6024   19.0991    7.6215 N.pl3   1  UNL1        0.0000
    702 N          -0.2946   10.3625    9.2684 N.pl3   1  UNL1        0.0000
    703 O           0.8597   19.3873    5.0544 O.3     1  UNL1        0.0000
    704 O          -9.5640   16.1528    7.9446 O.3     1  UNL1        0.0000
    705 O          -2.3138   12.0199    9.6663 O.3     1  UNL1        0.0000
    706 O          -5.7666   24.4684    3.3566 O.3     1  UNL1        0.0000
    707 O          -4.9302   23.0815    4.9427 O.3     1  UNL1        0.0000
    708 O          -3.8657   12.2638    8.0397 O.3     1  UNL1        0.0000
    709 O           2.4479   19.0630    3.4769 O.3     1  UNL1        0.0000
    710 O         -10.3750   17.5399    9.5426 O.3     1  UNL1        0.0000
    711 O          -0.2246   18.8081    2.4778 O.3     1  UNL1        0.0000
    712 O          -7.8708   16.6667   10.0429 O.3     1  UNL1        0.0000
    713 O           0.7142   21.0954    2.9278 O.3     1  UNL1        0.0000
    714 O          -9.6230   14.9421   10.5356 O.3     1  UNL1        0.0000
    715 O          -5.0165   11.7341   10.6303 O.3     1  UNL1        0.0000
    716 O          -3.2480   23.6295    2.8584 O.3     1  UNL1        0.0000
    717 O          -4.0625   13.9956   10.1661 O.3     1  UNL1        0.0000
    718 O          -4.9543   21.8724    2.3410 O.3     1  UNL1        0.0000
    719 O          -2.6453   10.8799   11.9324 O.3     1  UNL1        0.0000
    720 O          -4.3978   25.5531    1.0844 O.2     1  UNL1        0.0000
    721 O          -1.8431   13.6681   11.9272 O.3     1  UNL1        0.0000
    722 O          -6.6337   23.7174    1.0243 O.2     1  UNL1        0.0000
    723 O           2.8951   20.7426    1.0705 O.2     1  UNL1        0.0000
    724 O         -11.2593   16.7822   11.8583 O.2     1  UNL1        0.0000
    725 O           2.0995   17.9883    1.0999 O.2     1  UNL1        0.0000
    726 O          -8.9911   18.5646   11.9396 O.3     1  UNL1        0.0000
    727 O          -2.0328   21.1996    2.9789 O.3     1  UNL1        0.0000
    728 O          -6.7347   14.1958    9.9599 O.3     1  UNL1        0.0000
    729 O           0.4213   19.9745    0.0461 O.3     1  UNL1        0.0000
    730 O          -4.1463   23.0765   -0.1206 O.3     1  UNL1        0.0000
    731 H          -2.9078   16.0002    8.3665 H       1  UNL1        0.0000
    732 H          -6.8295   10.2211    6.7189 H       1  UNL1        0.0000
    733 H          -2.1496   24.9150    5.5913 H       1  UNL1        0.0000
    734 H          -1.7996   17.7401    6.9358 H       1  UNL1        0.0000
    735 H          -6.7434   17.7825    7.5534 H       1  UNL1        0.0000
    736 H         -10.3274   12.7225    6.6173 H       1  UNL1        0.0000
    737 H          -5.3710   16.0156    8.6222 H       1  UNL1        0.0000
    738 H          -5.6293   19.5420    6.1573 H       1  UNL1        0.0000
    739 H          -1.0459   22.7390    5.1510 H       1  UNL1        0.0000
    740 H         -14.6394   22.9724    5.5934 H      49  UNL49       0.0000
    741 C          -3.6526   18.7339    6.4582 C.ar    1  UNL1        0.0000
    742 C          -4.8873   16.7806    8.0171 C.ar    1  UNL1        0.0000
    743 C          -0.4747   23.5525    5.5988 C.ar    1  UNL1        0.0000
    744 C          -8.5062   11.5760    6.7341 C.2     1  UNL1        0.0000
    745 C          -5.0486   18.7595    6.6400 C.ar    1  UNL1        0.0000
    746 C          -3.4969   16.7659    7.8650 C.ar    1  UNL1        0.0000
    747 C          -1.1008   24.7790    5.8498 C.ar    1  UNL1        0.0000
    748 C          -7.8774   10.3483    6.4563 C.3     1  UNL1        0.0000
    749 C           0.8784   23.3662    5.9031 C.ar    1  UNL1        0.0000
    750 C          -9.8596   11.7650    6.3991 C.3     1  UNL1        0.0000
    751 C          -2.8777   17.7380    7.0790 C.ar    1  UNL1        0.0000
    752 C          -5.6638   17.7768    7.4131 C.ar    1  UNL1        0.0000
    753 O          -1.7755   19.5885    5.2579 O.3     1  UNL1        0.0000
    754 O          -8.3969   13.7098    7.7910 O.2     1  UNL1        0.0000
    755 O          -6.5725   12.3901    7.8611 O.2     1  UNL1        0.0000
    756 O          -3.7427   20.6683    5.0802 O.3     1  UNL1        0.0000
    757 N          -0.7058   25.0140   25.0819 N.pl3  22  UNL22       0.0000
    758 N          -0.2427   24.2818   27.0858 N.pl3  22  UNL22       0.0000
    759 C          -0.0856   23.7838   24.9321 C.2    22  UNL22       0.0000
    760 C           0.2050   23.3257   26.1897 C.2    22  UNL22       0.0000
    761 C           1.0719   25.3329   28.9281 C.3    22  UNL22       0.0000
    762 C          -1.0806   25.9285   23.9963 C.3    22  UNL22       0.0000
    763 C          -0.7862   25.2965   26.3915 C.3    22  UNL22       0.0000
    764 C           0.0109   24.3052   28.5429 C.3    22  UNL22       0.0000
    765 H           0.1710   23.3782   23.9633 H      22  UNL22       0.0000
    766 H           0.7055   22.4238   26.5163 H      22  UNL22       0.0000
    767 H           2.0333   25.1091   28.4530 H      22  UNL22       0.0000
    768 H          -0.2014   26.0743   23.3595 H      22  UNL22       0.0000
    769 H           0.7821   26.3454   28.6211 H      22  UNL22       0.0000
    770 H          -1.9008   25.4852   23.4265 H      22  UNL22       0.0000
    771 H           1.1960   25.3203   30.0183 H      22  UNL22       0.0000
    772 H           0.3302   23.2911   28.8156 H      22  UNL22       0.0000
    773 H          -1.3744   26.8822   24.4413 H      22  UNL22       0.0000
    774 H          -1.1581   26.2229   26.8051 H      22  UNL22       0.0000
    775 H          -0.9508   24.4963   29.0320 H      22  UNL22       0.0000
    776 N           2.1037   28.0467   24.6353 N.3    23  UNL23       0.0000
    777 C           1.9899   29.4278   27.0469 C.3    23  UNL23       0.0000
    778 C           4.2938   26.5410   24.8232 C.3    23  UNL23       0.0000
    779 O           0.7575   30.1171   24.8082 O.2    23  UNL23       0.0000
    780 O          -0.0512   28.1041   26.0746 O.2    23  UNL23       0.0000
    781 O           2.1291   25.7596   23.5670 O.2    23  UNL23       0.0000
    782 O           2.0867   25.8658   26.0756 O.2    23  UNL23       0.0000
    783 F           3.0207   30.2512   26.7400 F      23  UNL23       0.0000
    784 F           4.7511   27.3284   25.8238 F      23  UNL23       0.0000
    785 F           2.4965   28.3637   27.7259 F      23  UNL23       0.0000
    786 F           1.1294   30.0918   27.8729 F      23  UNL23       0.0000
    787 F           4.7817   27.0013   23.6351 F      23  UNL23       0.0000
    788 F           4.7812   25.2863   25.0102 F      23  UNL23       0.0000
    789 S           1.0562   28.8810   25.5134 S.O2   23  UNL23       0.0000
    790 S           2.4323   26.4845   24.7994 S.O2   23  UNL23       0.0000
    791 TI        -14.0071    9.7758   24.2845 Ti      1  UNL1        0.0000
    792 TI         -3.1766   12.6570   14.9197 Ti      1  UNL1        0.0000
    793 TI         -9.9104    5.8396   22.4645 Ti      1  UNL1        0.0000
    794 TI         -8.3992   15.0018   16.6915 Ti      1  UNL1        0.0000
    795 TI         -9.3978   16.6801   14.7871 Ti      1  UNL1        0.0000
    796 TI         -8.0222    5.5853   24.4179 Ti      1  UNL1        0.0000
    797 TI        -13.0579    8.0399   22.3930 Ti      1  UNL1        0.0000
    798 TI         -5.1645   12.9596   16.7671 Ti      1  UNL1        0.0000
    799 H         -13.5052   13.6729   24.0650 H       1  UNL1        0.0000
    800 H          -2.3679    8.7510   15.2404 H       1  UNL1        0.0000
    801 H         -17.9670    9.0192   23.9020 H       1  UNL1        0.0000
    802 H           0.2055   14.6613   15.1203 H       1  UNL1        0.0000
    803 H          -7.0466    1.5508   24.0320 H       1  UNL1        0.0000
    804 H         -13.4563   16.0902   15.1091 H       1  UNL1        0.0000
    805 H          -8.9034   15.0433   12.9140 H       1  UNL1        0.0000
    806 H          -5.0522   12.4144   13.2197 H       1  UNL1        0.0000
    807 H          -7.5123    4.9182   18.9068 H       1  UNL1        0.0000
    808 H         -10.1227   16.8388   20.3104 H       1  UNL1        0.0000
    809 H         -17.1305   11.4286   22.0371 H       1  UNL1        0.0000
    810 H          -0.4219   10.5727   17.2257 H       1  UNL1        0.0000
    811 H         -14.8294    9.9811   18.7033 H       1  UNL1        0.0000
    812 H         -12.4979   18.5079   17.1403 H       1  UNL1        0.0000
    813 H          -9.0056   19.7829   15.6426 H       1  UNL1        0.0000
    814 H          -2.5257    6.7322   16.4429 H       1  UNL1        0.0000
    815 H          -6.3066   14.6819   15.3528 H       1  UNL1        0.0000
    816 H         -10.9911    7.6880   23.7581 H       1  UNL1        0.0000
    817 H          -3.7875    7.5201   22.8075 H       1  UNL1        0.0000
    818 H          -5.2686    7.0511   23.5549 H       1  UNL1        0.0000
    819 H          -3.2134   11.9538   21.7086 H       1  UNL1        0.0000
    820 H          -3.7831   12.3124   20.0901 H       1  UNL1        0.0000
    821 H          -4.2763    2.5653   22.6175 H       1  UNL1        0.0000
    822 H          -5.5554    3.6659   23.0749 H       1  UNL1        0.0000
    823 C          -2.5986   11.9158   17.7832 C.3     1  UNL1        0.0000
    824 C         -14.9677   10.0372   21.4375 C.3     1  UNL1        0.0000
    825 C          -7.3299    4.8289   21.5398 C.3     1  UNL1        0.0000
    826 C         -10.3354   16.9723   17.6508 C.3     1  UNL1        0.0000
    827 C          -1.7026   11.3115   18.7784 C.ar    1  UNL1        0.0000
    828 C         -15.8996   10.6622   20.4604 C.2     1  UNL1        0.0000
    829 C          -6.3897    4.2146   20.5926 C.ar    1  UNL1        0.0000
    830 C         -11.2252   17.6191   18.6506 C.ar    1  UNL1        0.0000
    831 C          -1.9513   11.3864   20.1848 C.ar    1  UNL1        0.0000
    832 C         -15.6832   10.5423   19.0724 C.3     1  UNL1        0.0000
    833 C          -5.2603    3.4543   21.0457 C.ar    1  UNL1        0.0000
    834 C         -12.3199   18.3920   18.2057 C.ar    1  UNL1        0.0000
    835 C         -10.9707   17.4483   20.0055 C.ar    1  UNL1        0.0000
    836 C          -6.6374    4.3467   19.2087 C.ar    1  UNL1        0.0000
    837 C          -0.5689   10.6125   18.3027 C.ar    1  UNL1        0.0000
    838 C         -16.9997   11.3547   20.9591 C.2     1  UNL1        0.0000
    839 C          -2.3868    8.8301   13.0963 C.ar    1  UNL1        0.0000
    840 C          -8.8566   20.6217   13.1213 C.ar    1  UNL1        0.0000
    841 C           0.0976   14.5932   12.9703 C.ar    1  UNL1        0.0000
    842 C         -13.2607   16.1356   12.9509 C.2     1  UNL1        0.0000
    843 C          -7.6525   12.6586   18.6561 C.3     1  UNL1        0.0000
    844 C         -12.4086    5.5642   20.5742 C.2     1  UNL1        0.0000
    845 C          -2.5227   10.2849   13.0731 C.3     1  UNL1        0.0000
    846 C          -8.9493   19.1881   13.0838 C.3     1  UNL1        0.0000
    847 C          -1.2002   13.9764   13.0171 C.3     1  UNL1        0.0000
    848 C         -11.8584   16.5500   12.9753 C.2     1  UNL1        0.0000
    849 C          -2.3475    8.1610   14.3259 C.ar    1  UNL1        0.0000
    850 C         -13.4943   14.2613   24.9789 C.ar    1  UNL1        0.0000
    851 C           0.7529   14.8680   14.2042 C.ar    1  UNL1        0.0000
    852 C         -18.5285    8.8398   24.8174 C.3     1  UNL1        0.0000
    853 C          -3.8427    7.7955   24.8319 C.ar    1  UNL1        0.0000
    854 C         -13.9579   15.9052   14.1633 C.3     1  UNL1        0.0000
    855 C          -7.0050    1.0236   24.9810 C.ar    1  UNL1        0.0000
    856 C          -8.8428   21.3728   14.3506 C.ar    1  UNL1        0.0000
    857 N          -8.7877   20.7740   15.5887 N.pl3   1  UNL1        0.0000
    858 N          -4.4218    7.6126   23.5929 N.pl3   1  UNL1        0.0000
    859 N          -3.0322   12.0327   20.7161 N.pl3   1  UNL1        0.0000
    860 N          -4.9293    3.2960   22.3631 N.pl3   1  UNL1        0.0000
    861 O          -3.7749   12.3209   18.1490 O.3     1  UNL1        0.0000
    862 O         -14.1987    9.0864   21.0392 O.3     1  UNL1        0.0000
    863 O          -6.9485    4.9534   22.7609 O.3     1  UNL1        0.0000
    864 O         -10.4012   17.4020   16.4512 O.3     1  UNL1        0.0000
    865 O          -9.5649   16.0151   18.0373 O.3     1  UNL1        0.0000
    866 O          -8.5003    5.1974   21.1343 O.3     1  UNL1        0.0000
    867 O          -2.1867   11.9966   16.5715 O.3     1  UNL1        0.0000
    868 O         -15.0097   10.4735   22.6372 O.3     1  UNL1        0.0000
    869 O          -4.8592   11.7417   15.5724 O.3     1  UNL1        0.0000
    870 O         -12.5055    9.6003   23.1375 O.3     1  UNL1        0.0000
    871 O          -3.9204   14.0290   16.0224 O.3     1  UNL1        0.0000
    872 O         -14.2576    7.8756   23.6302 O.3     1  UNL1        0.0000
    873 O          -9.6511    4.6677   23.7249 O.3     1  UNL1        0.0000
    874 O          -7.8827   16.5631   15.9530 O.3     1  UNL1        0.0000
    875 O          -8.6972    6.9292   23.2607 O.3     1  UNL1        0.0000
    876 O          -9.5889   14.8060   15.4356 O.3     1  UNL1        0.0000
    877 O          -7.2799    3.8134   25.0270 O.3     1  UNL1        0.0000
    878 O          -9.0324   18.4867   14.1790 O.3     1  UNL1        0.0000
    879 O          -6.4778    6.6016   25.0219 O.3     1  UNL1        0.0000
    880 O         -11.2684   16.6510   14.1189 O.2     1  UNL1        0.0000
    881 O          -1.7396   13.6762   14.1651 O.3     1  UNL1        0.0000
    882 O         -15.8939    9.7158   24.9529 O.2     1  UNL1        0.0000
    883 O          -2.5351   10.9219   14.1945 O.3     1  UNL1        0.0000
    884 O         -13.6257   11.4981   25.0342 O.3     1  UNL1        0.0000
    885 O          -6.6674   14.1331   16.0735 O.3     1  UNL1        0.0000
    886 O         -11.3694    7.1293   23.0545 O.3     1  UNL1        0.0000
    887 O          -4.2133   12.9080   13.1407 O.3     1  UNL1        0.0000
    888 O          -8.7810   16.0101   12.9740 O.3     1  UNL1        0.0000
    889 H          -7.5425    8.9338   21.4611 H       1  UNL1        0.0000
    890 H         -11.4641    3.1546   19.8135 H       1  UNL1        0.0000
    891 H          -6.7843   17.8486   18.6859 H       1  UNL1        0.0000
    892 H          -6.4343   10.6737   20.0304 H       1  UNL1        0.0000
    893 H         -11.3781   10.7160   20.6480 H       1  UNL1        0.0000
    894 H         -14.9621    5.6560   19.7119 H       1  UNL1        0.0000
    895 H         -10.0056    8.9491   21.7168 H       1  UNL1        0.0000
    896 H         -10.2640   12.4756   19.2519 H       1  UNL1        0.0000
    897 H          -5.6805   15.6726   18.2456 H       1  UNL1        0.0000
    898 H         -19.2740   15.9059   18.6880 H      49  UNL49       0.0000
    899 C          -8.2872   11.6675   19.5528 C.ar    1  UNL1        0.0000
    900 C          -9.5219    9.7142   21.1117 C.ar    1  UNL1        0.0000
    901 C          -5.1094   16.4861   18.6934 C.ar    1  UNL1        0.0000
    902 C         -13.1408    4.5096   19.8287 C.2     1  UNL1        0.0000
    903 C          -9.6833   11.6930   19.7346 C.ar    1  UNL1        0.0000
    904 C          -8.1315    9.6995   20.9596 C.ar    1  UNL1        0.0000
    905 C          -5.7355   17.7126   18.9444 C.ar    1  UNL1        0.0000
    906 C         -12.5121    3.2819   19.5509 C.3     1  UNL1        0.0000
    907 C          -3.7562   16.2998   18.9977 C.ar    1  UNL1        0.0000
    908 C         -14.4943    4.6985   19.4937 C.3     1  UNL1        0.0000
    909 C          -7.5124   10.6716   20.1736 C.ar    1  UNL1        0.0000
    910 C         -10.2985   10.7103   20.5077 C.ar    1  UNL1        0.0000
    911 O          -6.4101   12.5221   18.3525 O.3     1  UNL1        0.0000
    912 O         -13.0315    6.6433   20.8857 O.2     1  UNL1        0.0000
    913 O         -11.2072    5.3237   20.9557 O.2     1  UNL1        0.0000
    914 O          -8.3774   13.6019   18.1748 O.3     1  UNL1        0.0000
    915 N          -5.3405   17.9475   38.1765 N.pl3  25  UNL25       0.0000
    916 N          -4.8774   17.2153   40.1804 N.pl3  25  UNL25       0.0000
    917 C          -4.7202   16.7174   38.0267 C.2    25  UNL25       0.0000
    918 C          -4.4297   16.2592   39.2844 C.2    25  UNL25       0.0000
    919 C          -3.5627   18.2665   42.0227 C.3    25  UNL25       0.0000
    920 C          -5.7152   18.8621   37.0909 C.3    25  UNL25       0.0000
    921 C          -5.4209   18.2301   39.4861 C.3    25  UNL25       0.0000
    922 C          -4.6238   17.2387   41.6375 C.3    25  UNL25       0.0000
    923 H          -4.4637   16.3117   37.0579 H      25  UNL25       0.0000
    924 H          -3.9292   15.3574   39.6109 H      25  UNL25       0.0000
    925 H          -2.6014   18.0426   41.5476 H      25  UNL25       0.0000
    926 H          -4.8361   19.0079   36.4541 H      25  UNL25       0.0000
    927 H          -3.8526   19.2789   41.7157 H      25  UNL25       0.0000
    928 H          -6.5354   18.4188   36.5211 H      25  UNL25       0.0000
    929 H          -3.4386   18.2539   43.1130 H      25  UNL25       0.0000
    930 H          -4.3044   16.2246   41.9102 H      25  UNL25       0.0000
    931 H          -6.0090   19.8158   37.5359 H      25  UNL25       0.0000
    932 H          -5.7927   19.1565   39.8997 H      25  UNL25       0.0000
    933 H          -5.5855   17.4299   42.1266 H      25  UNL25       0.0000
    934 N          -2.5310   20.9802   37.7299 N.3    26  UNL26       0.0000
    935 C          -2.6447   22.3613   40.1415 C.3    26  UNL26       0.0000
    936 C          -0.3408   19.4745   37.9178 C.3    26  UNL26       0.0000
    937 O          -3.8771   23.0506   37.9028 O.2    26  UNL26       0.0000
    938 O          -4.6859   21.0376   39.1693 O.2    26  UNL26       0.0000
    939 O          -2.5055   18.6932   36.6617 O.2    26  UNL26       0.0000
    940 O          -2.5479   18.7994   39.1702 O.2    26  UNL26       0.0000
    941 F          -1.6139   23.1847   39.8346 F      26  UNL26       0.0000
    942 F           0.1165   20.2619   38.9184 F      26  UNL26       0.0000
    943 F          -2.1382   21.2973   40.8205 F      26  UNL26       0.0000
    944 F          -3.5052   23.0253   40.9676 F      26  UNL26       0.0000
    945 F           0.1470   19.9349   36.7297 F      26  UNL26       0.0000
    946 F           0.1465   18.2198   38.1048 F      26  UNL26       0.0000
    947 S          -3.5784   21.8145   38.6080 S.O2   26  UNL26       0.0000
    948 S          -2.2024   19.4181   37.8940 S.O2   26  UNL26       0.0000
    949 TI        -18.6418    2.7094   37.3791 Ti      1  UNL1        0.0000
    950 TI         -7.8113    5.5906   28.0143 Ti      1  UNL1        0.0000
    951 TI        -14.5451   -1.2268   35.5591 Ti      1  UNL1        0.0000
    952 TI        -13.0339    7.9353   29.7861 Ti      1  UNL1        0.0000
    953 TI        -14.0325    9.6136   27.8817 Ti      1  UNL1        0.0000
    954 TI        -12.6569   -1.4811   37.5125 Ti      1  UNL1        0.0000
    955 TI        -17.6926    0.9735   35.4876 Ti      1  UNL1        0.0000
    956 TI         -9.7991    5.8932   29.8618 Ti      1  UNL1        0.0000
    957 H         -18.1399    6.6065   37.1596 H       1  UNL1        0.0000
    958 H          -7.0025    1.6846   28.3350 H       1  UNL1        0.0000
    959 H         -22.6017    1.9528   36.9966 H       1  UNL1        0.0000
    960 H          -4.4291    7.5949   28.2149 H       1  UNL1        0.0000
    961 H         -11.6813   -5.5157   37.1266 H       1  UNL1        0.0000
    962 H         -18.0910    9.0237   28.2038 H       1  UNL1        0.0000
    963 H         -13.5380    7.9768   26.0086 H       1  UNL1        0.0000
    964 H          -9.6868    5.3479   26.3144 H       1  UNL1        0.0000
    965 H         -12.1470   -2.1483   32.0014 H       1  UNL1        0.0000
    966 H         -14.7573    9.7724   33.4050 H       1  UNL1        0.0000
    967 H         -21.7652    4.3621   35.1317 H       1  UNL1        0.0000
    968 H          -5.0565    3.5063   30.3203 H       1  UNL1        0.0000
    969 H         -19.4641    2.9147   31.7979 H       1  UNL1        0.0000
    970 H         -17.1325   11.4415   30.2349 H       1  UNL1        0.0000
    971 H         -13.6402   12.7165   28.7372 H       1  UNL1        0.0000
    972 H          -7.1603   -0.3343   29.5375 H       1  UNL1        0.0000
    973 H         -10.9413    7.6155   28.4475 H       1  UNL1        0.0000
    974 H         -15.6258    0.6216   36.8527 H       1  UNL1        0.0000
    975 H          -8.4221    0.4537   35.9021 H       1  UNL1        0.0000
    976 H          -9.9033   -0.0154   36.6495 H       1  UNL1        0.0000
    977 H          -7.8480    4.8873   34.8032 H       1  UNL1        0.0000
    978 H          -8.4177    5.2459   33.1847 H       1  UNL1        0.0000
    979 H          -8.9109   -4.5011   35.7121 H       1  UNL1        0.0000
    980 H         -10.1901   -3.4005   36.1695 H       1  UNL1        0.0000
    981 C          -7.2332    4.8494   30.8778 C.3     1  UNL1        0.0000
    982 C         -19.6023    2.9708   34.5321 C.3     1  UNL1        0.0000
    983 C         -11.9646   -2.2375   34.6344 C.3     1  UNL1        0.0000
    984 C         -14.9700    9.9058   30.7454 C.3     1  UNL1        0.0000
    985 C          -6.3372    4.2451   31.8730 C.ar    1  UNL1        0.0000
    986 C         -20.5342    3.5958   33.5550 C.2     1  UNL1        0.0000
    987 C         -11.0244   -2.8519   33.6872 C.ar    1  UNL1        0.0000
    988 C         -15.8598   10.5526   31.7452 C.ar    1  UNL1        0.0000
    989 C          -6.5860    4.3200   33.2794 C.ar    1  UNL1        0.0000
    990 C         -20.3178    3.4758   32.1670 C.3     1  UNL1        0.0000
    991 C          -9.8949   -3.6122   34.1403 C.ar    1  UNL1        0.0000
    992 C         -16.9545   11.3256   31.3003 C.ar    1  UNL1        0.0000
    993 C         -15.6053   10.3819   33.1001 C.ar    1  UNL1        0.0000
    994 C         -11.2721   -2.7197   32.3033 C.ar    1  UNL1        0.0000
    995 C          -5.2036    3.5461   31.3973 C.ar    1  UNL1        0.0000
    996 C         -21.6344    4.2882   34.0537 C.2     1  UNL1        0.0000
    997 C          -7.0215    1.7636   26.1909 C.ar    1  UNL1        0.0000
    998 C         -13.4912   13.5552   26.2159 C.ar    1  UNL1        0.0000
    999 C          -4.5370    7.5267   26.0649 C.ar    1  UNL1        0.0000
   1000 C         -17.8954    9.0692   26.0455 C.2     1  UNL1        0.0000
   1001 C         -12.2872    5.5922   31.7507 C.3     1  UNL1        0.0000
   1002 C         -17.0433   -1.5022   33.6688 C.2     1  UNL1        0.0000
   1003 C          -7.1573    3.2185   26.1677 C.3     1  UNL1        0.0000
   1004 C         -13.5840   12.1217   26.1784 C.3     1  UNL1        0.0000
   1005 C          -5.8349    6.9099   26.1117 C.3     1  UNL1        0.0000
   1006 C         -16.4931    9.4835   26.0699 C.2     1  UNL1        0.0000
   1007 C          -6.9821    1.0945   27.4206 C.ar    1  UNL1        0.0000
   1008 C         -18.1290    7.1949   38.0735 C.ar    1  UNL1        0.0000
   1009 C          -3.8817    7.8015   27.2988 C.ar    1  UNL1        0.0000
   1010 C         -23.1632    1.7734   37.9120 C.3     1  UNL1        0.0000
   1011 C          -8.4774    0.7290   37.9265 C.ar    1  UNL1        0.0000
   1012 C         -18.5926    8.8388   27.2580 C.3     1  UNL1        0.0000
   1013 C         -11.6396   -6.0428   38.0756 C.ar    1  UNL1        0.0000
   1014 C         -13.4774   14.3064   27.4452 C.ar    1  UNL1        0.0000
   1015 N         -13.4224   13.7076   28.6833 N.pl3   1  UNL1        0.0000
   1016 N          -9.0564    0.5462   36.6875 N.pl3   1  UNL1        0.0000
   1017 N          -7.6669    4.9662   33.8107 N.pl3   1  UNL1        0.0000
   1018 N          -9.5639   -3.7704   35.4577 N.pl3   1  UNL1        0.0000
   1019 O          -8.4096    5.2545   31.2436 O.3     1  UNL1        0.0000
   1020 O         -18.8333    2.0199   34.1338 O.3     1  UNL1        0.0000
   1021 O         -11.5831   -2.1130   35.8555 O.3     1  UNL1        0.0000
   1022 O         -15.0359   10.3355   29.5458 O.3     1  UNL1        0.0000
   1023 O         -14.1995    8.9486   31.1319 O.3     1  UNL1        0.0000
   1024 O         -13.1350   -1.8691   34.2289 O.3     1  UNL1        0.0000
   1025 O          -6.8214    4.9301   29.6661 O.3     1  UNL1        0.0000
   1026 O         -19.6443    3.4070   35.7318 O.3     1  UNL1        0.0000
   1027 O          -9.4939    4.6753   28.6671 O.3     1  UNL1        0.0000
   1028 O         -17.1401    2.5339   36.2321 O.3     1  UNL1        0.0000
   1029 O          -8.5551    6.9625   29.1170 O.3     1  UNL1        0.0000
   1030 O         -18.8923    0.8092   36.7248 O.3     1  UNL1        0.0000
   1031 O         -14.2858   -2.3988   36.8195 O.3     1  UNL1        0.0000
   1032 O         -12.5173    9.4966   29.0476 O.3     1  UNL1        0.0000
   1033 O         -13.3318   -0.1373   36.3554 O.3     1  UNL1        0.0000
   1034 O         -14.2236    7.7395   28.5302 O.3     1  UNL1        0.0000
   1035 O         -11.9145   -3.2530   38.1216 O.3     1  UNL1        0.0000
   1036 O         -13.6671   11.4203   27.2736 O.3     1  UNL1        0.0000
   1037 O         -11.1124   -0.4648   38.1165 O.3     1  UNL1        0.0000
   1038 O         -15.9030    9.5845   27.2135 O.2     1  UNL1        0.0000
   1039 O          -6.3742    6.6097   27.2597 O.3     1  UNL1        0.0000
   1040 O         -20.5285    2.6493   38.0475 O.2     1  UNL1        0.0000
   1041 O          -7.1698    3.8554   27.2891 O.3     1  UNL1        0.0000
   1042 O         -18.2603    4.4317   38.1288 O.3     1  UNL1        0.0000
   1043 O         -11.3021    7.0667   29.1681 O.3     1  UNL1        0.0000
   1044 O         -16.0040    0.0629   36.1492 O.3     1  UNL1        0.0000
   1045 O          -8.8480    5.8416   26.2353 O.3     1  UNL1        0.0000
   1046 O         -13.4156    8.9436   26.0686 O.3     1  UNL1        0.0000
   1047 H         -12.1771    1.8674   34.5557 H       1  UNL1        0.0000
   1048 H         -16.0988   -3.9118   32.9081 H       1  UNL1        0.0000
   1049 H         -11.4189   10.7821   31.7805 H       1  UNL1        0.0000
   1050 H         -11.0689    3.6072   33.1250 H       1  UNL1        0.0000
   1051 H         -16.0127    3.6496   33.7426 H       1  UNL1        0.0000
   1052 H         -19.5967   -1.4104   32.8065 H       1  UNL1        0.0000
   1053 H         -14.6403    1.8827   34.8114 H       1  UNL1        0.0000
   1054 H         -14.8986    5.4091   32.3465 H       1  UNL1        0.0000
   1055 H         -10.3152    8.6061   31.3402 H       1  UNL1        0.0000
   1056 H         -23.9086    8.8395   31.7826 H      49  UNL49       0.0000
   1057 C         -12.9219    4.6010   32.6474 C.ar    1  UNL1        0.0000
   1058 C         -14.1566    2.6478   34.2063 C.ar    1  UNL1        0.0000
   1059 C          -9.7440    9.4197   31.7880 C.ar    1  UNL1        0.0000
   1060 C         -17.7755   -2.5569   32.9234 C.2     1  UNL1        0.0000
   1061 C         -14.3179    4.6266   32.8292 C.ar    1  UNL1        0.0000
   1062 C         -12.7661    2.6331   34.0542 C.ar    1  UNL1        0.0000
   1063 C         -10.3701   10.6461   32.0390 C.ar    1  UNL1        0.0000
   1064 C         -17.1467   -3.7845   32.6456 C.3     1  UNL1        0.0000
   1065 C          -8.3909    9.2334   32.0923 C.ar    1  UNL1        0.0000
   1066 C         -19.1289   -2.3679   32.5883 C.3     1  UNL1        0.0000
   1067 C         -12.1470    3.6051   33.2682 C.ar    1  UNL1        0.0000
   1068 C         -14.9331    3.6439   33.6023 C.ar    1  UNL1        0.0000
   1069 O         -11.0448    5.4556   31.4471 O.3     1  UNL1        0.0000
   1070 O         -17.6662   -0.4231   33.9803 O.2     1  UNL1        0.0000
   1071 O         -15.8418   -1.7428   34.0503 O.2     1  UNL1        0.0000
   1072 O         -13.0120    6.5354   31.2694 O.3     1  UNL1        0.0000
   1073 N          -9.9751   10.8811   51.2711 N.pl3  28  UNL28       0.0000
   1074 N          -9.5120   10.1489   53.2750 N.pl3  28  UNL28       0.0000
   1075 C          -9.3549    9.6509   51.1213 C.2    28  UNL28       0.0000
   1076 C          -9.0643    9.1928   52.3790 C.2    28  UNL28       0.0000
   1077 C          -8.1974   11.2000   55.1173 C.3    28  UNL28       0.0000
   1078 C         -10.3499   11.7957   50.1855 C.3    28  UNL28       0.0000
   1079 C         -10.0555   11.1636   52.5807 C.3    28  UNL28       0.0000
   1080 C          -9.2584   10.1723   54.7321 C.3    28  UNL28       0.0000
   1081 H          -9.0983    9.2453   50.1525 H      28  UNL28       0.0000
   1082 H          -8.5638    8.2909   52.7055 H      28  UNL28       0.0000
   1083 H          -7.2360   10.9762   54.6422 H      28  UNL28       0.0000
   1084 H          -9.4707   11.9414   49.5487 H      28  UNL28       0.0000
   1085 H          -8.4872   12.2125   54.8103 H      28  UNL28       0.0000
   1086 H         -11.1701   11.3523   49.6157 H      28  UNL28       0.0000
   1087 H          -8.0733   11.1875   56.2076 H      28  UNL28       0.0000
   1088 H          -8.9391    9.1582   55.0048 H      28  UNL28       0.0000
   1089 H         -10.6437   12.7494   50.6305 H      28  UNL28       0.0000
   1090 H         -10.4274   12.0900   52.9943 H      28  UNL28       0.0000
   1091 H         -10.2201   10.3634   55.2212 H      28  UNL28       0.0000
   1092 N          -7.1656   13.9138   50.8245 N.3    29  UNL29       0.0000
   1093 C          -7.2794   15.2949   53.2361 C.3    29  UNL29       0.0000
   1094 C          -4.9755   12.4081   51.0124 C.3    29  UNL29       0.0000
   1095 O          -8.5118   15.9842   50.9974 O.2    29  UNL29       0.0000
   1096 O          -9.3205   13.9712   52.2639 O.2    29  UNL29       0.0000
   1097 O          -7.1402   11.6267   49.7563 O.2    29  UNL29       0.0000
   1098 O          -7.1826   11.7329   52.2649 O.2    29  UNL29       0.0000
   1099 F          -6.2486   16.1183   52.9292 F      29  UNL29       0.0000
   1100 F          -4.5182   13.1955   52.0130 F      29  UNL29       0.0000
   1101 F          -6.7728   14.2309   53.9151 F      29  UNL29       0.0000
   1102 F          -8.1399   15.9589   54.0622 F      29  UNL29       0.0000
   1103 F          -4.4876   12.8684   49.8243 F      29  UNL29       0.0000
   1104 F          -4.4881   11.1534   51.1995 F      29  UNL29       0.0000
   1105 S          -8.2131   14.7481   51.7026 S.O2   29  UNL29       0.0000
   1106 S          -6.8370   12.3516   50.9886 S.O2   29  UNL29       0.0000
   1107 TI        -23.2764   -4.3570   50.4737 Ti      1  UNL1        0.0000
   1108 TI        -12.4459   -1.4758   41.1089 Ti      1  UNL1        0.0000
   1109 TI        -19.1797   -8.2932   48.6537 Ti      1  UNL1        0.0000
   1110 TI        -17.6685    0.8689   42.8807 Ti      1  UNL1        0.0000
   1111 TI        -18.6671    2.5472   40.9763 Ti      1  UNL1        0.0000
   1112 TI        -17.2915   -8.5476   50.6071 Ti      1  UNL1        0.0000
   1113 TI        -22.3272   -6.0929   48.5822 Ti      1  UNL1        0.0000
   1114 TI        -14.4337   -1.1733   42.9564 Ti      1  UNL1        0.0000
   1115 H         -22.7745   -0.4600   50.2543 H       5  UNL5        0.0000
   1116 H         -11.6372   -5.3819   41.4296 H       1  UNL1        0.0000
   1117 H         -27.2363   -5.1137   50.0913 H       6  UNL6        0.0000
   1118 H          -9.0638    0.5285   41.3096 H       1  UNL1        0.0000
   1119 H         -16.3159  -12.5821   50.2212 H       1  UNL1        0.0000
   1120 H         -22.7256    1.9573   41.2984 H       1  UNL1        0.0000
   1121 H         -18.1726    0.9104   39.1032 H       1  UNL1        0.0000
   1122 H         -14.3215   -1.7185   39.4090 H       1  UNL1        0.0000
   1123 H         -16.7816   -9.2147   45.0960 H       1  UNL1        0.0000
   1124 H         -19.3920    2.7059   46.4997 H       1  UNL1        0.0000
   1125 H         -26.3998   -2.7043   48.2263 H       1  UNL1        0.0000
   1126 H          -9.6912   -3.5601   43.4149 H       1  UNL1        0.0000
   1127 H         -24.0987   -4.1517   44.8925 H       1  UNL1        0.0000
   1128 H         -21.7672    4.3751   43.3296 H       1  UNL1        0.0000
   1129 H         -18.2749    5.6500   41.8318 H       1  UNL1        0.0000
   1130 H         -11.7950   -7.4007   42.6321 H       1  UNL1        0.0000
   1131 H         -15.5759    0.5490   41.5421 H       1  UNL1        0.0000
   1132 H         -20.2604   -6.4448   49.9474 H       1  UNL1        0.0000
   1133 H         -13.0568   -6.6127   48.9968 H       7  UNL7        0.0000
   1134 H         -14.5379   -7.0818   49.7441 H       7  UNL7        0.0000
   1135 H         -12.4827   -2.1791   47.8979 H       1  UNL1        0.0000
   1136 H         -13.0524   -1.8205   46.2793 H       1  UNL1        0.0000
   1137 H         -13.5456  -11.5676   48.8067 H       1  UNL1        0.0000
   1138 H         -14.8247  -10.4670   49.2641 H       1  UNL1        0.0000
   1139 C         -11.8679   -2.2171   43.9724 C.3     1  UNL1        0.0000
   1140 C         -24.2370   -4.0957   47.6267 C.3     1  UNL1        0.0000
   1141 C         -16.5992   -9.3039   47.7290 C.3     1  UNL1        0.0000
   1142 C         -19.6046    2.8394   43.8401 C.3     1  UNL1        0.0000
   1143 C         -10.9719   -2.8214   44.9676 C.ar    1  UNL1        0.0000
   1144 C         -25.1689   -3.4706   46.6496 C.2     1  UNL1        0.0000
   1145 C         -15.6590   -9.9183   46.7818 C.ar    1  UNL1        0.0000
   1146 C         -20.4945    3.4862   44.8398 C.ar    1  UNL1        0.0000
   1147 C         -11.2206   -2.7465   46.3740 C.ar    1  UNL1        0.0000
   1148 C         -24.9525   -3.5906   45.2616 C.3     1  UNL1        0.0000
   1149 C         -14.5296  -10.6786   47.2349 C.ar    1  UNL1        0.0000
   1150 C         -21.5892    4.2592   44.3949 C.ar    1  UNL1        0.0000
   1151 C         -20.2400    3.3154   46.1947 C.ar    1  UNL1        0.0000
   1152 C         -15.9067   -9.7862   45.3979 C.ar    1  UNL1        0.0000
   1153 C          -9.8382   -3.5204   44.4919 C.ar    1  UNL1        0.0000
   1154 C         -26.2690   -2.7782   47.1483 C.2     1  UNL1        0.0000
   1155 C         -11.6561   -5.3028   39.2855 C.ar    1  UNL1        0.0000
   1156 C         -18.1259    6.4888   39.3105 C.ar    1  UNL1        0.0000
   1157 C          -9.1717    0.4603   39.1595 C.ar    1  UNL1        0.0000
   1158 C         -22.5300    2.0027   39.1401 C.2     1  UNL1        0.0000
   1159 C         -16.9218   -1.4743   44.8453 C.3     1  UNL1        0.0000
   1160 C         -21.6779   -8.5687   46.7634 C.2     1  UNL1        0.0000
   1161 C         -11.7920   -3.8480   39.2623 C.3     1  UNL1        0.0000
   1162 C         -18.2186    5.0553   39.2730 C.3     1  UNL1        0.0000
   1163 C         -10.4695   -0.1565   39.2063 C.3     1  UNL1        0.0000
   1164 C         -21.1277    2.4171   39.1646 C.2     1  UNL1        0.0000
   1165 C         -11.6168   -5.9719   40.5152 C.ar    1  UNL1        0.0000
   1166 C         -22.7636    0.1284   51.1681 C.2     5  UNL5        0.0000
   1167 C          -8.5164    0.7351   40.3934 C.ar    1  UNL1        0.0000
   1168 C         -27.7978   -5.2930   51.0066 C.3    30  UNL30       0.0000
   1169 C         -13.1120   -6.3374   51.0211 C.2     7  UNL7        0.0000
   1170 C         -23.2272    1.7723   40.3526 C.3     1  UNL1        0.0000
   1171 C         -16.2743  -13.1093   51.1702 C.2     1  UNL1        0.0000
   1172 C         -18.1121    7.2400   40.5398 C.ar    1  UNL1        0.0000
   1173 N         -18.0570    6.6411   41.7779 N.pl3   1  UNL1        0.0000
   1174 N         -13.6911   -6.5202   49.7821 N.pl3   7  UNL7        0.0000
   1175 N         -12.3015   -2.1002   46.9053 N.pl3   1  UNL1        0.0000
   1176 N         -14.1986  -10.8368   48.5523 N.pl3   1  UNL1        0.0000
   1177 O         -13.0442   -1.8120   44.3382 O.3     1  UNL1        0.0000
   1178 O         -23.4680   -5.0465   47.2284 O.3     1  UNL1        0.0000
   1179 O         -16.2178   -9.1795   48.9501 O.3     1  UNL1        0.0000
   1180 O         -19.6705    3.2691   42.6405 O.3     1  UNL1        0.0000
   1181 O         -18.8342    1.8822   44.2265 O.3     1  UNL1        0.0000
   1182 O         -17.7696   -8.9355   47.3235 O.3     1  UNL1        0.0000
   1183 O         -11.4560   -2.1363   42.7607 O.3     1  UNL1        0.0000
   1184 O         -24.2790   -3.6594   48.8264 O.3     1  UNL1        0.0000
   1185 O         -14.1285   -2.3912   41.7617 O.3     1  UNL1        0.0000
   1186 O         -21.7747   -4.5326   49.3267 O.3     1  UNL1        0.0000
   1187 O         -13.1897   -0.1039   42.2116 O.3     1  UNL1        0.0000
   1188 O         -23.5269   -6.2572   49.8194 O.3     1  UNL1        0.0000
   1189 O         -18.9204   -9.4652   49.9141 O.3     1  UNL1        0.0000
   1190 O         -17.1520    2.4302   42.1422 O.3     1  UNL1        0.0000
   1191 O         -17.9665   -7.2037   49.4500 O.3     1  UNL1        0.0000
   1192 O         -18.8582    0.6731   41.6248 O.3     1  UNL1        0.0000
   1193 O         -16.5492  -10.3194   51.2162 O.3     1  UNL1        0.0000
   1194 O         -18.3017    4.3538   40.3682 O.3     1  UNL1        0.0000
   1195 O         -15.7470   -7.5313   51.2111 O.3     1  UNL1        0.0000
   1196 O         -20.5377    2.5181   40.3081 O.2     1  UNL1        0.0000
   1197 O         -11.0089   -0.4567   40.3543 O.3     1  UNL1        0.0000
   1198 O         -25.1632   -4.4171   51.1421 O.3     1  UNL1        0.0000
   1199 O         -11.8044   -3.2110   40.3837 O.3     1  UNL1        0.0000
   1200 O         -22.8950   -2.6347   51.2234 O.3     1  UNL1        0.0000
   1201 O         -15.9367    0.0003   42.2627 O.3     1  UNL1        0.0000
   1202 O         -20.6387   -7.0035   49.2438 O.3     1  UNL1        0.0000
   1203 O         -13.4826   -1.2248   39.3299 O.3     1  UNL1        0.0000
   1204 O         -18.0503    1.8772   39.1632 O.3     1  UNL1        0.0000
   1205 H         -16.8118   -5.1991   47.6503 H       1  UNL1        0.0000
   1206 H         -20.7334  -10.9782   46.0027 H       1  UNL1        0.0000
   1207 H         -16.0535    3.7157   44.8752 H       1  UNL1        0.0000
   1208 H         -15.7036   -3.4592   46.2196 H       1  UNL1        0.0000
   1209 H         -20.6474   -3.4168   46.8372 H       1  UNL1        0.0000
   1210 H         -24.2313   -8.4768   45.9011 H       1  UNL1        0.0000
   1211 H         -19.2749   -5.1837   47.9060 H       1  UNL1        0.0000
   1212 H         -19.5333   -1.6573   45.4411 H       1  UNL1        0.0000
   1213 H         -14.9498    1.5397   44.4349 H       1  UNL1        0.0000
   1214 H         -28.5433    1.7730   44.8772 H      49  UNL49       0.0000
   1215 C         -17.5565   -2.4654   45.7420 C.ar    1  UNL1        0.0000
   1216 C         -18.7912   -4.4187   47.3009 C.ar    1  UNL1        0.0000
   1217 C         -14.3787    2.3532   44.8826 C.ar    1  UNL1        0.0000
   1218 C         -22.4101   -9.6233   46.0180 C.2     1  UNL1        0.0000
   1219 C         -18.9526   -2.4398   45.9239 C.ar    1  UNL1        0.0000
   1220 C         -17.4008   -4.4334   47.1488 C.ar    1  UNL1        0.0000
   1221 C         -15.0048    3.5797   45.1336 C.ar    1  UNL1        0.0000
   1222 C         -21.7814  -10.8510   45.7402 C.3     1  UNL1        0.0000
   1223 C         -13.0255    2.1669   45.1869 C.ar    1  UNL1        0.0000
   1224 C         -23.7636   -9.4344   45.6829 C.3     1  UNL1        0.0000
   1225 C         -16.7817   -3.4613   46.3628 C.ar    1  UNL1        0.0000
   1226 C         -19.5678   -3.4225   46.6969 C.ar    1  UNL1        0.0000
   1227 O         -15.6794   -1.6108   44.5417 O.3     1  UNL1        0.0000
   1228 O         -22.3008   -7.4895   47.0749 O.2     1  UNL1        0.0000
   1229 O         -20.4765   -8.8092   47.1449 O.2     1  UNL1        0.0000
   1230 O         -17.6467   -0.5310   44.3640 O.3     1  UNL1        0.0000
   1231 N         -14.6098    3.8146   64.3657 N.pl3  32  UNL32       0.0000
   1232 N         -14.1467    3.0825   66.3696 N.pl3  32  UNL32       0.0000
   1233 C         -13.9895    2.5845   64.2159 C.2    32  UNL32       0.0000
   1234 C         -13.6990    2.1264   65.4736 C.2    32  UNL32       0.0000
   1235 C         -12.8320    4.1336   68.2119 C.3    32  UNL32       0.0000
   1236 C         -14.9845    4.7292   63.2801 C.3    32  UNL32       0.0000
   1237 C         -14.6902    4.0972   65.6753 C.3    32  UNL32       0.0000
   1238 C         -13.8931    3.1059   67.8267 C.3    32  UNL32       0.0000
   1239 H         -13.7329    2.1789   63.2471 H      32  UNL32       0.0000
   1240 H         -13.1984    1.2245   65.8001 H      32  UNL32       0.0000
   1241 H         -11.8707    3.9097   67.7368 H      32  UNL32       0.0000
   1242 H         -14.1054    4.8750   62.6434 H      32  UNL32       0.0000
   1243 H         -13.1218    5.1461   67.9049 H      32  UNL32       0.0000
   1244 H         -15.8047    4.2859   62.7103 H      32  UNL32       0.0000
   1245 H         -12.7079    4.1210   69.3022 H      32  UNL32       0.0000
   1246 H         -13.5737    2.0917   68.0995 H      32  UNL32       0.0000
   1247 H         -15.2783    5.6829   63.7251 H      32  UNL32       0.0000
   1248 H         -15.0620    5.0236   66.0889 H      32  UNL32       0.0000
   1249 H         -14.8547    3.2970   68.3158 H      32  UNL32       0.0000
   1250 N         -11.8003    6.8474   63.9191 N.3    33  UNL33       0.0000
   1251 C         -11.9140    8.2285   66.3307 C.3    33  UNL33       0.0000
   1252 C          -9.6101    5.3417   64.1070 C.3    33  UNL33       0.0000
   1253 O         -13.1464    8.9177   64.0920 O.2    33  UNL33       0.0000
   1254 O         -13.9552    6.9047   65.3585 O.2    33  UNL33       0.0000
   1255 O         -11.7748    4.5603   62.8509 O.2    33  UNL33       0.0000
   1256 O         -11.8172    4.6665   65.3595 O.2    33  UNL33       0.0000
   1257 F         -10.8832    9.0519   66.0238 F      33  UNL33       0.0000
   1258 F          -9.1528    6.1291   65.1076 F      33  UNL33       0.0000
   1259 F         -11.4075    7.1644   67.0098 F      33  UNL33       0.0000
   1260 F         -12.7745    8.8925   67.1568 F      33  UNL33       0.0000
   1261 F          -9.1223    5.8020   62.9189 F      33  UNL33       0.0000
   1262 F          -9.1228    4.0870   64.2941 F      33  UNL33       0.0000
   1263 S         -12.8477    7.6817   64.7972 S.O2   33  UNL33       0.0000
   1264 S         -11.4717    5.2852   64.0832 S.O2   33  UNL33       0.0000
   1265 TI        -15.8895   31.4548   11.1334 Ti      1  UNL1        0.0000
   1266 TI         -5.0590   34.3360    1.7686 Ti      1  UNL1        0.0000
   1267 TI        -11.7928   27.5186    9.3134 Ti      1  UNL1        0.0000
   1268 TI        -10.2816   36.6807    3.5403 Ti      1  UNL1        0.0000
   1269 TI        -11.2802   38.3590    1.6360 Ti      1  UNL1        0.0000
   1270 TI         -9.9046   27.2642   11.2667 Ti      1  UNL1        0.0000
   1271 TI        -14.9403   29.7189    9.2419 Ti      1  UNL1        0.0000
   1272 TI         -7.0468   34.6385    3.6160 Ti      1  UNL1        0.0000
   1273 H         -15.3876   35.3519   10.9139 H       1  UNL1        0.0000
   1274 H          -4.2502   30.4299    2.0892 H       1  UNL1        0.0000
   1275 H         -19.8494   30.6982   10.7509 H       1  UNL1        0.0000
   1276 H          -1.6769   36.3403    1.9692 H       1  UNL1        0.0000
   1277 H          -8.9290   23.2297   10.8808 H       1  UNL1        0.0000
   1278 H         -15.3387   37.7691    1.9580 H       1  UNL1        0.0000
   1279 H         -10.7857   36.7222   -0.2371 H       1  UNL1        0.0000
   1280 H          -6.9345   34.0933    0.0686 H       1  UNL1        0.0000
   1281 H          -9.3947   26.5971    5.7556 H       1  UNL1        0.0000
   1282 H         -12.0051   38.5177    7.1593 H       1  UNL1        0.0000
   1283 H         -19.0129   33.1075    8.8860 H       1  UNL1        0.0000
   1284 H          -2.3043   32.2517    4.0745 H       1  UNL1        0.0000
   1285 H         -16.7118   31.6601    5.5521 H       1  UNL1        0.0000
   1286 H         -14.3803   40.1869    3.9892 H       1  UNL1        0.0000
   1287 H         -10.8879   41.4619    2.4914 H       1  UNL1        0.0000
   1288 H          -4.4081   28.4111    3.2917 H       1  UNL1        0.0000
   1289 H          -8.1890   36.3608    2.2017 H       1  UNL1        0.0000
   1290 H         -12.8735   29.3670   10.6070 H       1  UNL1        0.0000
   1291 H          -5.6699   29.1991    9.6564 H       1  UNL1        0.0000
   1292 H          -7.1510   28.7300   10.4037 H       1  UNL1        0.0000
   1293 H          -5.0957   33.6327    8.5575 H       1  UNL1        0.0000
   1294 H          -5.6655   33.9913    6.9390 H       1  UNL1        0.0000
   1295 H          -6.1587   24.2443    9.4664 H       1  UNL1        0.0000
   1296 H          -7.4378   25.3448    9.9238 H       1  UNL1        0.0000
   1297 C          -4.4810   33.5948    4.6321 C.3     1  UNL1        0.0000
   1298 C         -16.8500   31.7162    8.2863 C.3     1  UNL1        0.0000
   1299 C          -9.2123   26.5079    8.3887 C.3     1  UNL1        0.0000
   1300 C         -12.2177   38.6512    4.4997 C.3     1  UNL1        0.0000
   1301 C          -3.5850   32.9904    5.6273 C.ar    1  UNL1        0.0000
   1302 C         -17.7819   32.3412    7.3093 C.2     1  UNL1        0.0000
   1303 C          -8.2721   25.8935    7.4415 C.ar    1  UNL1        0.0000
   1304 C         -13.1076   39.2980    5.4995 C.ar    1  UNL1        0.0000
   1305 C          -3.8337   33.0654    7.0337 C.ar    1  UNL1        0.0000
   1306 C         -17.5656   32.2212    5.9213 C.3     1  UNL1        0.0000
   1307 C          -7.1427   25.1332    7.8945 C.ar    1  UNL1        0.0000
   1308 C         -14.2023   40.0710    5.0546 C.ar    1  UNL1        0.0000
   1309 C         -12.8531   39.1273    6.8544 C.ar    1  UNL1        0.0000
   1310 C          -8.5198   26.0257    6.0575 C.ar    1  UNL1        0.0000
   1311 C          -2.4513   32.2915    5.1516 C.ar    1  UNL1        0.0000
   1312 C         -18.8821   33.0336    7.8080 C.2     1  UNL1        0.0000
   1313 C          -4.2692   30.5090   -0.0549 C.2     1  UNL1        0.0000
   1314 C         -10.7389   42.3006   -0.0298 C.2     1  UNL1        0.0000
   1315 C          -1.7848   36.2721   -0.1809 C.2     1  UNL1        0.0000
   1316 C         -15.1431   37.8146   -0.2003 C.2     1  UNL1        0.0000
   1317 C          -9.5349   34.3375    5.5049 C.3     1  UNL1        0.0000
   1318 C         -14.2910   27.2432    7.4231 C.2     1  UNL1        0.0000
   1319 C          -4.4051   31.9639   -0.0781 C.2     1  UNL1        0.0000
   1320 C         -10.8317   40.8671   -0.0673 C.2     1  UNL1        0.0000
   1321 C          -3.0826   35.6553   -0.1340 C.2     1  UNL1        0.0000
   1322 C         -13.7408   38.2289   -0.1758 C.2     1  UNL1        0.0000
   1323 C          -4.2299   29.8399    1.1748 C.2     1  UNL1        0.0000
   1324 C         -15.3767   35.9403   11.8278 C.ar    1  UNL1        0.0000
   1325 C          -1.1295   36.5469    1.0531 C.2     1  UNL1        0.0000
   1326 C         -20.4109   30.5188   11.6663 C.3     1  UNL1        0.0000
   1327 C          -5.7251   29.4744   11.6808 C.ar    1  UNL1        0.0000
   1328 C         -15.8403   37.5841    1.0122 C.3     1  UNL1        0.0000
   1329 C          -8.8874   22.7025   11.8299 C.ar    1  UNL1        0.0000
   1330 C         -10.7252   43.0518    1.1994 C.2     1  UNL1        0.0000
   1331 N         -10.6701   42.4530    2.4376 N.pl3   1  UNL1        0.0000
   1332 N          -6.3042   29.2916   10.4418 N.pl3   1  UNL1        0.0000
   1333 N          -4.9146   33.7116    7.5650 N.pl3   1  UNL1        0.0000
   1334 N          -6.8116   24.9750    9.2119 N.pl3   1  UNL1        0.0000
   1335 O          -5.6573   33.9999    4.9979 O.3     1  UNL1        0.0000
   1336 O         -16.0811   30.7653    7.8880 O.3     1  UNL1        0.0000
   1337 O          -8.8309   26.6324    9.6098 O.3     1  UNL1        0.0000
   1338 O         -12.2836   39.0809    3.3001 O.3     1  UNL1        0.0000
   1339 O         -11.4473   37.6940    4.8862 O.3     1  UNL1        0.0000
   1340 O         -10.3827   26.8763    7.9831 O.3     1  UNL1        0.0000
   1341 O          -4.0691   33.6755    3.4203 O.3     1  UNL1        0.0000
   1342 O         -16.8921   32.1524    9.4860 O.3     1  UNL1        0.0000
   1343 O          -6.7416   33.4206    2.4213 O.3     1  UNL1        0.0000
   1344 O         -14.3878   31.2792    9.9864 O.3     1  UNL1        0.0000
   1345 O          -5.8028   35.7079    2.8713 O.3     1  UNL1        0.0000
   1346 O         -16.1400   29.5546   10.4791 O.3     1  UNL1        0.0000
   1347 O         -11.5335   26.3466   10.5738 O.3     1  UNL1        0.0000
   1348 O          -9.7651   38.2420    2.8019 O.3     1  UNL1        0.0000
   1349 O         -10.5796   28.6081   10.1096 O.3     1  UNL1        0.0000
   1350 O         -11.4713   36.4849    2.2844 O.3     1  UNL1        0.0000
   1351 O          -9.1623   25.4924   11.8759 O.3     1  UNL1        0.0000
   1352 O         -10.9148   40.1656    1.0279 O.2     1  UNL1        0.0000
   1353 O          -8.3601   28.2806   11.8707 O.3     1  UNL1        0.0000
   1354 O         -13.1507   38.3299    0.9678 O.2     1  UNL1        0.0000
   1355 O          -3.6219   35.3551    1.0140 O.2     1  UNL1        0.0000
   1356 O         -17.7763   31.3947   11.8018 O.2     1  UNL1        0.0000
   1357 O          -4.4175   32.6008    1.0434 O.2     1  UNL1        0.0000
   1358 O         -15.5081   33.1771   11.8831 O.3     1  UNL1        0.0000
   1359 O          -8.5498   35.8121    2.9224 O.3     1  UNL1        0.0000
   1360 O         -13.2518   28.8083    9.9034 O.3     1  UNL1        0.0000
   1361 O          -6.0957   34.5870   -0.0104 O.3     1  UNL1        0.0000
   1362 O         -10.6634   37.6890   -0.1772 O.3     1  UNL1        0.0000
   1363 H          -9.4249   30.6128    8.3099 H       1  UNL1        0.0000
   1364 H         -13.3465   24.8336    6.6624 H       1  UNL1        0.0000
   1365 H          -8.6666   39.5275    5.5348 H       1  UNL1        0.0000
   1366 H          -8.3167   32.3526    6.8793 H       1  UNL1        0.0000
   1367 H         -13.2605   32.3950    7.4969 H       1  UNL1        0.0000
   1368 H         -16.8444   27.3350    6.5608 H       1  UNL1        0.0000
   1369 H         -11.8880   30.6281    8.5657 H       1  UNL1        0.0000
   1370 H         -12.1463   34.1545    6.1007 H       1  UNL1        0.0000
   1371 H          -7.5629   37.3515    5.0945 H       1  UNL1        0.0000
   1372 H         -21.1564   37.5849    5.5369 H      49  UNL49       0.0000
   1373 C         -10.1696   33.3464    6.4017 C.ar    1  UNL1        0.0000
   1374 C         -11.4043   31.3932    7.9606 C.ar    1  UNL1        0.0000
   1375 C          -6.9918   38.1650    5.5423 C.ar    1  UNL1        0.0000
   1376 C         -15.0232   26.1885    6.6776 C.2     1  UNL1        0.0000
   1377 C         -11.5657   33.3720    6.5835 C.ar    1  UNL1        0.0000
   1378 C         -10.0139   31.3785    7.8085 C.ar    1  UNL1        0.0000
   1379 C          -7.6179   39.3915    5.7933 C.ar    1  UNL1        0.0000
   1380 C         -14.3945   24.9609    6.3998 C.3     1  UNL1        0.0000
   1381 C          -5.6386   37.9788    5.8465 C.ar    1  UNL1        0.0000
   1382 C         -16.3767   26.3775    6.3425 C.3     1  UNL1        0.0000
   1383 C          -9.3948   32.3505    7.0224 C.ar    1  UNL1        0.0000
   1384 C         -12.1809   32.3893    7.3566 C.ar    1  UNL1        0.0000
   1385 O          -8.2925   34.2010    5.2014 O.3     1  UNL1        0.0000
   1386 O         -14.9139   28.3223    7.7345 O.2     1  UNL1        0.0000
   1387 O         -13.0896   27.0026    7.8045 O.2     1  UNL1        0.0000
   1388 O         -10.2598   35.2808    5.0237 O.3     1  UNL1        0.0000
   1389 N          -7.2228   39.6265   25.0253 N.pl3  35  UNL35       0.0000
   1390 N          -6.7598   38.8943   27.0292 N.pl3  35  UNL35       0.0000
   1391 C          -6.6026   38.3963   24.8756 C.2    35  UNL35       0.0000
   1392 C          -6.3121   37.9382   26.1332 C.2    35  UNL35       0.0000
   1393 C          -5.4451   39.9454   28.8716 C.3    35  UNL35       0.0000
   1394 C          -7.5976   40.5410   23.9398 C.3    35  UNL35       0.0000
   1395 C          -7.3033   39.9090   26.3350 C.3    35  UNL35       0.0000
   1396 C          -6.5061   38.9177   28.4864 C.3    35  UNL35       0.0000
   1397 H          -6.3460   37.9907   23.9068 H      35  UNL35       0.0000
   1398 H          -5.8115   37.0363   26.4598 H      35  UNL35       0.0000
   1399 H          -4.4838   39.7216   28.3965 H      35  UNL35       0.0000
   1400 H          -6.7185   40.6868   23.3030 H      35  UNL35       0.0000
   1401 H          -5.7349   40.9579   28.5646 H      35  UNL35       0.0000
   1402 H          -8.4178   40.0977   23.3700 H      35  UNL35       0.0000
   1403 H          -5.3210   39.9329   29.9618 H      35  UNL35       0.0000
   1404 H          -6.1868   37.9036   28.7591 H      35  UNL35       0.0000
   1405 H          -7.8914   41.4947   24.3847 H      35  UNL35       0.0000
   1406 H          -7.6751   40.8354   26.7485 H      35  UNL35       0.0000
   1407 H          -7.4678   39.1088   28.9754 H      35  UNL35       0.0000
   1408 N          -4.4134   42.6592   24.5787 N.3    36  UNL36       0.0000
   1409 C          -4.5271   44.0403   26.9903 C.3    36  UNL36       0.0000
   1410 C          -2.2232   41.1535   24.7667 C.3    36  UNL36       0.0000
   1411 O          -5.7595   44.7296   24.7517 O.2    36  UNL36       0.0000
   1412 O          -6.5682   42.7166   26.0181 O.2    36  UNL36       0.0000
   1413 O          -4.3879   40.3721   23.5105 O.2    36  UNL36       0.0000
   1414 O          -4.4303   40.4783   26.0191 O.2    36  UNL36       0.0000
   1415 F          -3.4963   44.8637   26.6834 F      36  UNL36       0.0000
   1416 F          -1.7659   41.9409   25.7673 F      36  UNL36       0.0000
   1417 F          -4.0206   42.9763   27.6694 F      36  UNL36       0.0000
   1418 F          -5.3876   44.7043   27.8164 F      36  UNL36       0.0000
   1419 F          -1.7353   41.6138   23.5785 F      36  UNL36       0.0000
   1420 F          -1.7359   39.8988   24.9537 F      36  UNL36       0.0000
   1421 S          -5.4608   43.4935   25.4569 S.O2   36  UNL36       0.0000
   1422 S          -4.0848   41.0970   24.7429 S.O2   36  UNL36       0.0000
   1423 TI        -20.5241   24.3883   24.2280 Ti      1  UNL1        0.0000
   1424 TI         -9.6937   27.2696   14.8632 Ti      1  UNL1        0.0000
   1425 TI        -16.4275   20.4521   22.4080 Ti      1  UNL1        0.0000
   1426 TI        -14.9163   29.6143   16.6350 Ti      1  UNL1        0.0000
   1427 TI        -15.9148   31.2926   14.7306 Ti      1  UNL1        0.0000
   1428 TI        -14.5393   20.1978   24.3614 Ti      1  UNL1        0.0000
   1429 TI        -19.5749   22.6525   22.3365 Ti      1  UNL1        0.0000
   1430 TI        -11.6815   27.5721   16.7106 Ti      1  UNL1        0.0000
   1431 H         -20.0223   28.2854   24.0085 H       1  UNL1        0.0000
   1432 H          -8.8849   23.3635   15.1838 H       1  UNL1        0.0000
   1433 H         -24.4840   23.6317   23.8455 H       1  UNL1        0.0000
   1434 H          -6.3115   29.2739   15.0638 H       1  UNL1        0.0000
   1435 H         -13.5636   16.1633   23.9754 H       1  UNL1        0.0000
   1436 H         -19.9734   30.7027   15.0526 H       1  UNL1        0.0000
   1437 H         -15.4204   29.6558   12.8575 H       1  UNL1        0.0000
   1438 H         -11.5692   27.0269   13.1632 H       1  UNL1        0.0000
   1439 H         -14.0293   19.5307   18.8503 H       1  UNL1        0.0000
   1440 H         -16.6397   31.4513   20.2539 H       1  UNL1        0.0000
   1441 H         -23.6476   26.0411   21.9806 H       1  UNL1        0.0000
   1442 H          -6.9389   25.1852   17.1692 H       1  UNL1        0.0000
   1443 H         -21.3465   24.5936   18.6467 H       1  UNL1        0.0000
   1444 H         -19.0149   33.1204   17.0838 H       1  UNL1        0.0000
   1445 H         -15.5226   34.3954   15.5860 H       1  UNL1        0.0000
   1446 H          -9.0427   21.3447   16.3863 H       1  UNL1        0.0000
   1447 H         -12.8236   29.2944   15.2963 H       1  UNL1        0.0000
   1448 H         -17.5082   22.3005   23.7016 H       1  UNL1        0.0000
   1449 H         -10.3045   22.1327   22.7510 H       1  UNL1        0.0000
   1450 H         -11.7856   21.6636   23.4984 H       1  UNL1        0.0000
   1451 H          -9.7304   26.5663   21.6521 H       1  UNL1        0.0000
   1452 H         -10.3001   26.9249   20.0336 H       1  UNL1        0.0000
   1453 H         -10.7933   17.1778   22.5610 H       1  UNL1        0.0000
   1454 H         -12.0725   18.2784   23.0184 H       1  UNL1        0.0000
   1455 C          -9.1156   26.5283   17.7267 C.3     1  UNL1        0.0000
   1456 C         -21.4847   24.6497   21.3809 C.3     1  UNL1        0.0000
   1457 C         -13.8470   19.4414   21.4833 C.3     1  UNL1        0.0000
   1458 C         -16.8524   31.5848   17.5943 C.3     1  UNL1        0.0000
   1459 C          -8.2196   25.9240   18.7219 C.ar    1  UNL1        0.0000
   1460 C         -22.4166   25.2747   20.4039 C.2     1  UNL1        0.0000
   1461 C         -12.9068   18.8271   20.5361 C.ar    1  UNL1        0.0000
   1462 C         -17.7422   32.2316   18.5941 C.ar    1  UNL1        0.0000
   1463 C          -8.4684   25.9989   20.1283 C.ar    1  UNL1        0.0000
   1464 C         -22.2002   25.1548   19.0159 C.3     1  UNL1        0.0000
   1465 C         -11.7773   18.0668   20.9891 C.ar    1  UNL1        0.0000
   1466 C         -18.8369   33.0045   18.1492 C.ar    1  UNL1        0.0000
   1467 C         -17.4877   32.0608   19.9490 C.ar    1  UNL1        0.0000
   1468 C         -13.1545   18.9592   19.1522 C.ar    1  UNL1        0.0000
   1469 C          -7.0859   25.2250   18.2462 C.ar    1  UNL1        0.0000
   1470 C         -23.5168   25.9672   20.9026 C.2     1  UNL1        0.0000
   1471 C          -8.9039   23.4426   13.0398 C.ar    1  UNL1        0.0000
   1472 C         -15.3736   35.2342   13.0648 C.ar    1  UNL1        0.0000
   1473 C          -6.4194   29.2057   12.9137 C.ar    1  UNL1        0.0000
   1474 C         -19.7778   30.7481   12.8944 C.2     1  UNL1        0.0000
   1475 C         -14.1695   27.2711   18.5995 C.3     1  UNL1        0.0000
   1476 C         -18.9256   20.1767   20.5177 C.2     1  UNL1        0.0000
   1477 C          -9.0397   24.8974   13.0166 C.3     1  UNL1        0.0000
   1478 C         -15.4663   33.8006   13.0273 C.3     1  UNL1        0.0000
   1479 C          -7.7173   28.5889   12.9606 C.3     1  UNL1        0.0000
   1480 C         -18.3754   31.1625   12.9188 C.2     1  UNL1        0.0000
   1481 C          -8.8645   22.7735   14.2694 C.ar    1  UNL1        0.0000
   1482 C         -20.0113   28.8738   24.9224 C.ar    1  UNL1        0.0000
   1483 C          -5.7641   29.4805   14.1477 C.ar    1  UNL1        0.0000
   1484 C         -25.0455   23.4523   24.7609 C.3     1  UNL1        0.0000
   1485 C         -10.3598   22.4080   24.7754 C.ar    1  UNL1        0.0000
   1486 C         -20.4749   30.5177   14.1068 C.3     1  UNL1        0.0000
   1487 C         -13.5220   15.6361   24.9245 C.ar    1  UNL1        0.0000
   1488 C         -15.3598   35.9854   14.2940 C.ar    1  UNL1        0.0000
   1489 N         -15.3048   35.3865   15.5322 N.pl3   1  UNL1        0.0000
   1490 N         -10.9388   22.2251   23.5364 N.pl3   1  UNL1        0.0000
   1491 N          -9.5493   26.6452   20.6596 N.pl3   1  UNL1        0.0000
   1492 N         -11.4463   17.9085   22.3065 N.pl3   1  UNL1        0.0000
   1493 O         -10.2920   26.9334   18.0925 O.3     1  UNL1        0.0000
   1494 O         -20.7157   23.6989   20.9827 O.3     1  UNL1        0.0000
   1495 O         -13.4655   19.5659   22.7044 O.3     1  UNL1        0.0000
   1496 O         -16.9183   32.0145   16.3947 O.3     1  UNL1        0.0000
   1497 O         -16.0819   30.6276   17.9808 O.3     1  UNL1        0.0000
   1498 O         -15.0174   19.8099   21.0778 O.3     1  UNL1        0.0000
   1499 O          -8.7038   26.6091   16.5149 O.3     1  UNL1        0.0000
   1500 O         -21.5267   25.0860   22.5807 O.3     1  UNL1        0.0000
   1501 O         -11.3763   26.3542   15.5159 O.3     1  UNL1        0.0000
   1502 O         -19.0225   24.2128   23.0810 O.3     1  UNL1        0.0000
   1503 O         -10.4375   28.6415   15.9659 O.3     1  UNL1        0.0000
   1504 O         -20.7747   22.4881   23.5737 O.3     1  UNL1        0.0000
   1505 O         -16.1682   19.2802   23.6684 O.3     1  UNL1        0.0000
   1506 O         -14.3997   31.1756   15.8965 O.3     1  UNL1        0.0000
   1507 O         -15.2142   21.5417   23.2042 O.3     1  UNL1        0.0000
   1508 O         -16.1059   29.4185   15.3791 O.3     1  UNL1        0.0000
   1509 O         -13.7969   18.4259   24.9705 O.3     1  UNL1        0.0000
   1510 O         -15.5495   33.0992   14.1225 O.3     1  UNL1        0.0000
   1511 O         -12.9948   21.2141   24.9653 O.3     1  UNL1        0.0000
   1512 O         -17.7854   31.2635   14.0624 O.2     1  UNL1        0.0000
   1513 O          -8.2566   28.2887   14.1086 O.3     1  UNL1        0.0000
   1514 O         -22.4109   24.3283   24.8964 O.2     1  UNL1        0.0000
   1515 O          -9.0522   25.5344   14.1380 O.3     1  UNL1        0.0000
   1516 O         -20.1427   26.1106   24.9777 O.3     1  UNL1        0.0000
   1517 O         -13.1845   28.7457   16.0170 O.3     1  UNL1        0.0000
   1518 O         -17.8864   21.7418   22.9980 O.3     1  UNL1        0.0000
   1519 O         -10.7304   27.5205   13.0842 O.3     1  UNL1        0.0000
   1520 O         -15.2980   30.6226   12.9175 O.3     1  UNL1        0.0000
   1521 H         -14.0595   23.5463   21.4046 H       1  UNL1        0.0000
   1522 H         -17.9812   17.7671   19.7570 H       1  UNL1        0.0000
   1523 H         -13.3013   32.4611   18.6294 H       1  UNL1        0.0000
   1524 H         -12.9513   25.2862   19.9739 H       1  UNL1        0.0000
   1525 H         -17.8951   25.3285   20.5915 H       1  UNL1        0.0000
   1526 H         -21.4791   20.2686   19.6554 H       1  UNL1        0.0000
   1527 H         -16.5227   23.5616   21.6603 H       1  UNL1        0.0000
   1528 H         -16.7810   27.0881   19.1953 H       1  UNL1        0.0000
   1529 H         -12.1976   30.2851   18.1891 H       1  UNL1        0.0000
   1530 H         -25.7910   30.5184   18.6315 H      49  UNL49       0.0000
   1531 C         -14.8042   26.2800   19.4963 C.ar    1  UNL1        0.0000
   1532 C         -16.0390   24.3267   21.0552 C.ar    1  UNL1        0.0000
   1533 C         -11.6264   31.0986   18.6369 C.ar    1  UNL1        0.0000
   1534 C         -19.6579   19.1221   19.7722 C.2     1  UNL1        0.0000
   1535 C         -16.2003   26.3055   19.6781 C.ar    1  UNL1        0.0000
   1536 C         -14.6485   24.3120   20.9031 C.ar    1  UNL1        0.0000
   1537 C         -12.2525   32.3251   18.8879 C.ar    1  UNL1        0.0000
   1538 C         -19.0291   17.8944   19.4944 C.3     1  UNL1        0.0000
   1539 C         -10.2733   30.9123   18.9411 C.ar    1  UNL1        0.0000
   1540 C         -21.0113   19.3110   19.4371 C.3     1  UNL1        0.0000
   1541 C         -14.0294   25.2841   20.1171 C.ar    1  UNL1        0.0000
   1542 C         -16.8155   25.3229   20.4512 C.ar    1  UNL1        0.0000
   1543 O         -12.9272   27.1346   18.2960 O.3     1  UNL1        0.0000
   1544 O         -19.5485   21.2559   20.8291 O.2     1  UNL1        0.0000
   1545 O         -17.7242   19.9362   20.8991 O.2     1  UNL1        0.0000
   1546 O         -14.8944   28.2144   18.1183 O.3     1  UNL1        0.0000
   1547 N         -11.8575   32.5600   38.1200 N.pl3  38  UNL38       0.0000
   1548 N         -11.3944   31.8278   40.1239 N.pl3  38  UNL38       0.0000
   1549 C         -11.2373   31.3299   37.9702 C.2    38  UNL38       0.0000
   1550 C         -10.9467   30.8718   39.2278 C.2    38  UNL38       0.0000
   1551 C         -10.0797   32.8790   41.9662 C.3    38  UNL38       0.0000
   1552 C         -12.2322   33.4746   37.0344 C.3    38  UNL38       0.0000
   1553 C         -11.9379   32.8426   39.4296 C.3    38  UNL38       0.0000
   1554 C         -11.1408   31.8512   41.5810 C.3    38  UNL38       0.0000
   1555 H         -10.9807   30.9243   37.0014 H      38  UNL38       0.0000
   1556 H         -10.4462   29.9699   39.5544 H      38  UNL38       0.0000
   1557 H          -9.1184   32.6551   41.4911 H      38  UNL38       0.0000
   1558 H         -11.3531   33.6204   36.3976 H      38  UNL38       0.0000
   1559 H         -10.3696   33.8915   41.6592 H      38  UNL38       0.0000
   1560 H         -13.0525   33.0313   36.4646 H      38  UNL38       0.0000
   1561 H          -9.9557   32.8664   43.0564 H      38  UNL38       0.0000
   1562 H         -10.8215   30.8371   41.8537 H      38  UNL38       0.0000
   1563 H         -12.5261   34.4283   37.4794 H      38  UNL38       0.0000
   1564 H         -12.3097   33.7690   39.8432 H      38  UNL38       0.0000
   1565 H         -12.1025   32.0424   42.0701 H      38  UNL38       0.0000
   1566 N          -9.0480   35.5928   37.6733 N.3    39  UNL39       0.0000
   1567 C          -9.1618   36.9738   40.0849 C.3    39  UNL39       0.0000
   1568 C          -6.8579   34.0871   37.8613 C.3    39  UNL39       0.0000
   1569 O         -10.3941   37.6631   37.8463 O.2    39  UNL39       0.0000
   1570 O         -11.2029   35.6501   39.1127 O.2    39  UNL39       0.0000
   1571 O          -9.0226   33.3057   36.6051 O.2    39  UNL39       0.0000
   1572 O          -9.0650   33.4119   39.1137 O.2    39  UNL39       0.0000
   1573 F          -8.1309   37.7972   39.7781 F      39  UNL39       0.0000
   1574 F          -6.4005   34.8744   38.8619 F      39  UNL39       0.0000
   1575 F          -8.6552   35.9098   40.7640 F      39  UNL39       0.0000
   1576 F         -10.0223   37.6379   40.9110 F      39  UNL39       0.0000
   1577 F          -6.3700   34.5474   36.6731 F      39  UNL39       0.0000
   1578 F          -6.3705   32.8324   38.0483 F      39  UNL39       0.0000
   1579 S         -10.0955   36.4270   38.5515 S.O2   39  UNL39       0.0000
   1580 S          -8.7194   34.0306   37.8375 S.O2   39  UNL39       0.0000
   1581 TI        -25.1588   17.3219   37.3226 Ti      1  UNL1        0.0000
   1582 TI        -14.3283   20.2031   27.9578 Ti      1  UNL1        0.0000
   1583 TI        -21.0621   13.3857   35.5026 Ti      1  UNL1        0.0000
   1584 TI        -19.5509   22.5478   29.7296 Ti      1  UNL1        0.0000
   1585 TI        -20.5495   24.2262   27.8252 Ti      1  UNL1        0.0000
   1586 TI        -19.1739   13.1314   37.4560 Ti      1  UNL1        0.0000
   1587 TI        -24.2096   15.5860   35.4311 Ti      1  UNL1        0.0000
   1588 TI        -16.3161   20.5057   29.8052 Ti      1  UNL1        0.0000
   1589 H         -24.6569   21.2190   37.1031 H       1  UNL1        0.0000
   1590 H         -13.5195   16.2971   28.2785 H       1  UNL1        0.0000
   1591 H         -29.1187   16.5653   36.9401 H       1  UNL1        0.0000
   1592 H         -10.9462   22.2074   28.1584 H       1  UNL1        0.0000
   1593 H         -18.1983    9.0968   37.0700 H       1  UNL1        0.0000
   1594 H         -24.6080   23.6363   28.1472 H       1  UNL1        0.0000
   1595 H         -20.0550   22.5894   25.9521 H       1  UNL1        0.0000
   1596 H         -16.2038   19.9604   26.2578 H       1  UNL1        0.0000
   1597 H         -18.6640   12.4643   31.9449 H       1  UNL1        0.0000
   1598 H         -21.2744   24.3849   33.3485 H       1  UNL1        0.0000
   1599 H         -28.2822   18.9746   35.0752 H       1  UNL1        0.0000
   1600 H         -11.5736   18.1188   30.2638 H       1  UNL1        0.0000
   1601 H         -25.9811   17.5272   31.7414 H       1  UNL1        0.0000
   1602 H         -23.6496   26.0540   30.1784 H       1  UNL1        0.0000
   1603 H         -20.1572   27.3290   28.6806 H       1  UNL1        0.0000
   1604 H         -13.6774   14.2782   29.4809 H       1  UNL1        0.0000
   1605 H         -17.4583   22.2280   28.3909 H       1  UNL1        0.0000
   1606 H         -22.1428   15.2341   36.7962 H       1  UNL1        0.0000
   1607 H         -14.9392   15.0662   35.8456 H       1  UNL1        0.0000
   1608 H         -16.4203   14.5972   36.5930 H       1  UNL1        0.0000
   1609 H         -14.3650   19.4999   34.7467 H       1  UNL1        0.0000
   1610 H         -14.9348   19.8584   33.1282 H       1  UNL1        0.0000
   1611 H         -15.4280   10.1114   35.6556 H       1  UNL1        0.0000
   1612 H         -16.7071   11.2120   36.1130 H       1  UNL1        0.0000
   1613 C         -13.7503   19.4619   30.8213 C.3     1  UNL1        0.0000
   1614 C         -26.1193   17.5833   34.4755 C.3     1  UNL1        0.0000
   1615 C         -18.4816   12.3750   34.5779 C.3     1  UNL1        0.0000
   1616 C         -21.4870   24.5184   30.6889 C.3     1  UNL1        0.0000
   1617 C         -12.8543   18.8576   31.8165 C.ar    1  UNL1        0.0000
   1618 C         -27.0512   18.2083   33.4985 C.2     1  UNL1        0.0000
   1619 C         -17.5414   11.7607   33.6307 C.ar    1  UNL1        0.0000
   1620 C         -22.3768   25.1652   31.6887 C.ar    1  UNL1        0.0000
   1621 C         -13.1030   18.9325   33.2229 C.ar    1  UNL1        0.0000
   1622 C         -26.8348   18.0883   32.1105 C.3     1  UNL1        0.0000
   1623 C         -16.4119   11.0004   34.0838 C.ar    1  UNL1        0.0000
   1624 C         -23.4716   25.9381   31.2438 C.ar    1  UNL1        0.0000
   1625 C         -22.1224   24.9944   33.0436 C.ar    1  UNL1        0.0000
   1626 C         -17.7891   11.8928   32.2468 C.ar    1  UNL1        0.0000
   1627 C         -11.7206   18.1586   31.3408 C.ar    1  UNL1        0.0000
   1628 C         -28.1514   18.9007   33.9972 C.2     1  UNL1        0.0000
   1629 C         -13.5385   16.3761   26.1344 C.ar    1  UNL1        0.0000
   1630 C         -20.0082   28.1677   26.1594 C.ar    1  UNL1        0.0000
   1631 C         -11.0541   22.1393   26.0084 C.ar    1  UNL1        0.0000
   1632 C         -24.4124   23.6817   25.9890 C.2     1  UNL1        0.0000
   1633 C         -18.8042   20.2047   31.6942 C.3     1  UNL1        0.0000
   1634 C         -23.5603   13.1103   33.6123 C.2     1  UNL1        0.0000
   1635 C         -13.6744   17.8310   26.1112 C.3     1  UNL1        0.0000
   1636 C         -20.1010   26.7342   26.1219 C.3     1  UNL1        0.0000
   1637 C         -12.3519   21.5224   26.0552 C.3     1  UNL1        0.0000
   1638 C         -23.0101   24.0960   26.0134 C.2     1  UNL1        0.0000
   1639 C         -13.4992   15.7070   27.3640 C.ar    1  UNL1        0.0000
   1640 C         -24.6460   21.8074   38.0170 C.ar    1  UNL1        0.0000
   1641 C         -10.3988   22.4141   27.2423 C.ar    1  UNL1        0.0000
   1642 C         -29.6802   16.3859   37.8555 C.3     1  UNL1        0.0000
   1643 C         -14.9944   15.3415   37.8700 C.ar    1  UNL1        0.0000
   1644 C         -25.1096   23.4513   27.2014 C.3     1  UNL1        0.0000
   1645 C         -18.1567    8.5697   38.0191 C.ar    1  UNL1        0.0000
   1646 C         -19.9945   28.9189   27.3886 C.ar    1  UNL1        0.0000
   1647 N         -19.9394   28.3201   28.6268 N.pl3   1  UNL1        0.0000
   1648 N         -15.5734   15.1587   36.6310 N.pl3   1  UNL1        0.0000
   1649 N         -14.1839   19.5787   33.7542 N.pl3   1  UNL1        0.0000
   1650 N         -16.0809   10.8421   35.4011 N.pl3   1  UNL1        0.0000
   1651 O         -14.9266   19.8670   31.1871 O.3     1  UNL1        0.0000
   1652 O         -25.3503   16.6324   34.0773 O.3     1  UNL1        0.0000
   1653 O         -18.1001   12.4995   35.7990 O.3     1  UNL1        0.0000
   1654 O         -21.5529   24.9480   29.4893 O.3     1  UNL1        0.0000
   1655 O         -20.7166   23.5611   31.0754 O.3     1  UNL1        0.0000
   1656 O         -19.6520   12.7434   34.1724 O.3     1  UNL1        0.0000
   1657 O         -13.3384   19.5426   29.6096 O.3     1  UNL1        0.0000
   1658 O         -26.1614   18.0195   35.6753 O.3     1  UNL1        0.0000
   1659 O         -16.0109   19.2878   28.6105 O.3     1  UNL1        0.0000
   1660 O         -23.6571   17.1464   36.1756 O.3     1  UNL1        0.0000
   1661 O         -15.0721   21.5751   29.0605 O.3     1  UNL1        0.0000
   1662 O         -25.4093   15.4217   36.6683 O.3     1  UNL1        0.0000
   1663 O         -20.8028   12.2137   36.7630 O.3     1  UNL1        0.0000
   1664 O         -19.0344   24.1092   28.9911 O.3     1  UNL1        0.0000
   1665 O         -19.8489   14.4752   36.2988 O.3     1  UNL1        0.0000
   1666 O         -20.7406   22.3520   28.4737 O.3     1  UNL1        0.0000
   1667 O         -18.4316   11.3595   38.0651 O.3     1  UNL1        0.0000
   1668 O         -20.1841   26.0328   27.2171 O.3     1  UNL1        0.0000
   1669 O         -17.6294   14.1477   38.0599 O.3     1  UNL1        0.0000
   1670 O         -22.4200   24.1970   27.1570 O.2     1  UNL1        0.0000
   1671 O         -12.8912   21.2222   27.2032 O.3     1  UNL1        0.0000
   1672 O         -27.0456   17.2619   37.9910 O.2     1  UNL1        0.0000
   1673 O         -13.6868   18.4679   27.2326 O.3     1  UNL1        0.0000
   1674 O         -24.7774   19.0442   38.0723 O.3     1  UNL1        0.0000
   1675 O         -17.8191   21.6792   29.1116 O.3     1  UNL1        0.0000
   1676 O         -22.5211   14.6754   36.0926 O.3     1  UNL1        0.0000
   1677 O         -15.3650   20.4541   26.1788 O.3     1  UNL1        0.0000
   1678 O         -19.9327   23.5561   26.0121 O.3     1  UNL1        0.0000
   1679 H         -18.6942   16.4799   34.4992 H       1  UNL1        0.0000
   1680 H         -22.6158   10.7007   32.8516 H       1  UNL1        0.0000
   1681 H         -17.9359   25.3946   31.7240 H       1  UNL1        0.0000
   1682 H         -17.5860   18.2197   33.0685 H       1  UNL1        0.0000
   1683 H         -22.5298   18.2621   33.6861 H       1  UNL1        0.0000
   1684 H         -26.1137   13.2021   32.7500 H       1  UNL1        0.0000
   1685 H         -21.1573   16.4952   34.7549 H       1  UNL1        0.0000
   1686 H         -21.4156   20.0216   32.2900 H       1  UNL1        0.0000
   1687 H         -16.8322   23.2186   31.2837 H       1  UNL1        0.0000
   1688 H         -30.4257   23.4520   31.7261 H      49  UNL49       0.0000
   1689 C         -19.4389   19.2136   32.5909 C.ar    1  UNL1        0.0000
   1690 C         -20.6736   17.2603   34.1498 C.ar    1  UNL1        0.0000
   1691 C         -16.2611   24.0322   31.7315 C.ar    1  UNL1        0.0000
   1692 C         -24.2925   12.0556   32.8668 C.2     1  UNL1        0.0000
   1693 C         -20.8350   19.2391   32.7727 C.ar    1  UNL1        0.0000
   1694 C         -19.2832   17.2456   33.9977 C.ar    1  UNL1        0.0000
   1695 C         -16.8872   25.2586   31.9825 C.ar    1  UNL1        0.0000
   1696 C         -23.6638   10.8280   32.5890 C.3     1  UNL1        0.0000
   1697 C         -14.9079   23.8459   32.0358 C.ar    1  UNL1        0.0000
   1698 C         -25.6460   12.2446   32.5318 C.3     1  UNL1        0.0000
   1699 C         -18.6641   18.2176   33.2117 C.ar    1  UNL1        0.0000
   1700 C         -21.4502   18.2564   33.5458 C.ar    1  UNL1        0.0000
   1701 O         -17.5618   20.0681   31.3906 O.3     1  UNL1        0.0000
   1702 O         -24.1832   14.1894   33.9237 O.2     1  UNL1        0.0000
   1703 O         -22.3589   12.8697   33.9938 O.2     1  UNL1        0.0000
   1704 O         -19.5291   21.1479   31.2129 O.3     1  UNL1        0.0000
   1705 N         -16.4921   25.4936   51.2146 N.pl3  41  UNL41       0.0000
   1706 N         -16.0291   24.7614   53.2185 N.pl3  41  UNL41       0.0000
   1707 C         -15.8719   24.2635   51.0648 C.2    41  UNL41       0.0000
   1708 C         -15.5814   23.8053   52.3224 C.2    41  UNL41       0.0000
   1709 C         -14.7144   25.8125   55.0608 C.3    41  UNL41       0.0000
   1710 C         -16.8669   26.4082   50.1290 C.3    41  UNL41       0.0000
   1711 C         -16.5726   25.7761   52.5242 C.3    41  UNL41       0.0000
   1712 C         -15.7754   24.7848   54.6756 C.3    41  UNL41       0.0000
   1713 H         -15.6153   23.8578   50.0960 H      41  UNL41       0.0000
   1714 H         -15.0808   22.9034   52.6490 H      41  UNL41       0.0000
   1715 H         -13.7530   25.5887   54.5857 H      41  UNL41       0.0000
   1716 H         -15.9878   26.5539   49.4922 H      41  UNL41       0.0000
   1717 H         -15.0042   26.8250   54.7538 H      41  UNL41       0.0000
   1718 H         -17.6871   25.9648   49.5592 H      41  UNL41       0.0000
   1719 H         -14.5903   25.8000   56.1510 H      41  UNL41       0.0000
   1720 H         -15.4561   23.7707   54.9483 H      41  UNL41       0.0000
   1721 H         -17.1607   27.3619   50.5740 H      41  UNL41       0.0000
   1722 H         -16.9444   26.7025   52.9378 H      41  UNL41       0.0000
   1723 H         -16.7371   24.9759   55.1647 H      41  UNL41       0.0000
   1724 N         -13.6827   28.5263   50.7680 N.3    42  UNL42       0.0000
   1725 C         -13.7964   29.9074   53.1796 C.3    42  UNL42       0.0000
   1726 C         -11.4925   27.0206   50.9559 C.3    42  UNL42       0.0000
   1727 O         -15.0288   30.5967   50.9409 O.2    42  UNL42       0.0000
   1728 O         -15.8375   28.5837   52.2073 O.2    42  UNL42       0.0000
   1729 O         -13.6572   26.2392   49.6997 O.2    42  UNL42       0.0000
   1730 O         -13.6996   26.3454   52.2083 O.2    42  UNL42       0.0000
   1731 F         -12.7656   30.7308   52.8727 F      42  UNL42       0.0000
   1732 F         -11.0352   27.8080   51.9565 F      42  UNL42       0.0000
   1733 F         -13.2899   28.8434   53.8586 F      42  UNL42       0.0000
   1734 F         -14.6569   30.5714   54.0056 F      42  UNL42       0.0000
   1735 F         -11.0046   27.4810   49.7678 F      42  UNL42       0.0000
   1736 F         -11.0051   25.7659   51.1429 F      42  UNL42       0.0000
   1737 S         -14.7301   29.3606   51.6461 S.O2   42  UNL42       0.0000
   1738 S         -13.3541   26.9641   50.9321 S.O2   42  UNL42       0.0000
   1739 TI        -29.7934   10.2555   50.4172 Ti      1  UNL1        0.0000
   1740 TI        -18.9630   13.1367   41.0524 Ti      1  UNL1        0.0000
   1741 TI        -25.6967    6.3193   48.5972 Ti      1  UNL1        0.0000
   1742 TI        -24.1856   15.4814   42.8242 Ti      1  UNL1        0.0000
   1743 TI        -25.1841   17.1597   40.9198 Ti      1  UNL1        0.0000
   1744 TI        -23.8085    6.0649   50.5506 Ti      1  UNL1        0.0000
   1745 TI        -28.8442    8.5196   48.5257 Ti      1  UNL1        0.0000
   1746 TI        -20.9508   13.4392   42.8998 Ti      1  UNL1        0.0000
   1747 H         -29.2916   14.1526   50.1977 H       8  UNL8        0.0000
   1748 H         -18.1542    9.2306   41.3731 H       1  UNL1        0.0000
   1749 H         -33.7533    9.4988   50.0347 H       9  UNL9        0.0000
   1750 H         -15.5808   15.1410   41.2530 H       1  UNL1        0.0000
   1751 H         -22.8329    2.0304   50.1647 H       5  UNL5        0.0000
   1752 H         -29.2427   16.5698   41.2418 H       1  UNL1        0.0000
   1753 H         -24.6897   15.5229   39.0467 H       1  UNL1        0.0000
   1754 H         -20.8385   12.8940   39.3524 H       1  UNL1        0.0000
   1755 H         -23.2986    5.3978   45.0395 H       1  UNL1        0.0000
   1756 H         -25.9090   17.3184   46.4431 H       1  UNL1        0.0000
   1757 H         -32.9169   11.9082   48.1698 H       1  UNL1        0.0000
   1758 H         -16.2082   11.0524   43.3584 H       1  UNL1        0.0000
   1759 H         -30.6157   10.4608   44.8360 H       1  UNL1        0.0000
   1760 H         -28.2842   18.9876   43.2730 H       1  UNL1        0.0000
   1761 H         -24.7919   20.2626   41.7753 H       1  UNL1        0.0000
   1762 H         -18.3120    7.2118   42.5756 H       1  UNL1        0.0000
   1763 H         -22.0929   15.1615   41.4855 H       1  UNL1        0.0000
   1764 H         -26.7774    8.1677   49.8908 H       1  UNL1        0.0000
   1765 H         -19.5738    7.9998   48.9402 H      10  UNL10       0.0000
   1766 H         -21.0549    7.5307   49.6876 H      10  UNL10       0.0000
   1767 H         -18.9997   12.4334   47.8413 H       1  UNL1        0.0000
   1768 H         -19.5694   12.7920   46.2228 H       1  UNL1        0.0000
   1769 H         -20.0626    3.0450   48.7502 H       1  UNL1        0.0000
   1770 H         -21.3418    4.1455   49.2076 H       1  UNL1        0.0000
   1771 C         -18.3849   12.3954   43.9159 C.3     1  UNL1        0.0000
   1772 C         -30.7540   10.5169   47.5702 C.3     1  UNL1        0.0000
   1773 C         -23.1162    5.3086   47.6725 C.3     1  UNL1        0.0000
   1774 C         -26.1217   17.4519   43.7835 C.3     1  UNL1        0.0000
   1775 C         -17.4889   11.7911   44.9111 C.ar    1  UNL1        0.0000
   1776 C         -31.6859   11.1419   46.5931 C.2     1  UNL1        0.0000
   1777 C         -22.1760    4.6942   46.7253 C.ar    1  UNL1        0.0000
   1778 C         -27.0115   18.0987   44.7833 C.ar    1  UNL1        0.0000
   1779 C         -17.7377   11.8660   46.3175 C.ar    1  UNL1        0.0000
   1780 C         -31.4695   11.0219   45.2051 C.3     1  UNL1        0.0000
   1781 C         -21.0466    3.9339   47.1784 C.ar    1  UNL1        0.0000
   1782 C         -28.1062   18.8717   44.3384 C.ar    1  UNL1        0.0000
   1783 C         -26.7570   17.9280   46.1382 C.ar    1  UNL1        0.0000
   1784 C         -22.4238    4.8264   45.3414 C.ar    1  UNL1        0.0000
   1785 C         -16.3552   11.0921   44.4354 C.ar    1  UNL1        0.0000
   1786 C         -32.7861   11.8343   47.0918 C.2     1  UNL1        0.0000
   1787 C         -18.1732    9.3097   39.2290 C.ar    1  UNL1        0.0000
   1788 C         -24.6429   21.1013   39.2540 C.ar    1  UNL1        0.0000
   1789 C         -15.6887   15.0728   39.1030 C.ar    1  UNL1        0.0000
   1790 C         -29.0471   16.6153   39.0836 C.2     1  UNL1        0.0000
   1791 C         -23.4388   13.1382   44.7888 C.3     1  UNL1        0.0000
   1792 C         -28.1949    6.0439   46.7069 C.2     1  UNL1        0.0000
   1793 C         -18.3090   10.7646   39.2058 C.3     1  UNL1        0.0000
   1794 C         -24.7356   19.6678   39.2165 C.3     1  UNL1        0.0000
   1795 C         -16.9866   14.4560   39.1498 C.3     1  UNL1        0.0000
   1796 C         -27.6447   17.0296   39.1080 C.2     1  UNL1        0.0000
   1797 C         -18.1338    8.6406   40.4586 C.ar    1  UNL1        0.0000
   1798 C         -29.2806   14.7410   51.1116 C.2     8  UNL8        0.0000
   1799 C         -15.0334   15.3476   40.3369 C.ar    1  UNL1        0.0000
   1800 C         -34.3148    9.3195   50.9501 C.3    43  UNL43       0.0000
   1801 C         -19.6291    8.2751   50.9646 C.2    10  UNL10       0.0000
   1802 C         -29.7442   16.3848   40.2960 C.3     1  UNL1        0.0000
   1803 C         -22.7913    1.5032   51.1137 C.2     5  UNL5        0.0000
   1804 C         -24.6291   21.8525   40.4833 C.ar    1  UNL1        0.0000
   1805 N         -24.5740   21.2536   41.7214 N.pl3   1  UNL1        0.0000
   1806 N         -20.2081    8.0923   49.7256 N.pl3  10  UNL10       0.0000
   1807 N         -18.8185   12.5123   46.8488 N.pl3   1  UNL1        0.0000
   1808 N         -20.7156    3.7757   48.4958 N.pl3   1  UNL1        0.0000
   1809 O         -19.5613   12.8005   44.2817 O.3     1  UNL1        0.0000
   1810 O         -29.9850    9.5660   47.1719 O.3     1  UNL1        0.0000
   1811 O         -22.7348    5.4331   48.8936 O.3     1  UNL1        0.0000
   1812 O         -26.1875   17.8816   42.5839 O.3     1  UNL1        0.0000
   1813 O         -25.3512   16.4947   44.1700 O.3     1  UNL1        0.0000
   1814 O         -24.2867    5.6770   47.2670 O.3     1  UNL1        0.0000
   1815 O         -17.9731   12.4762   42.7042 O.3     1  UNL1        0.0000
   1816 O         -30.7960   10.9531   48.7699 O.3     1  UNL1        0.0000
   1817 O         -20.6456   12.2213   41.7051 O.3     1  UNL1        0.0000
   1818 O         -28.2918   10.0799   49.2702 O.3     1  UNL1        0.0000
   1819 O         -19.7068   14.5086   42.1551 O.3     1  UNL1        0.0000
   1820 O         -30.0440    8.3553   49.7629 O.3     1  UNL1        0.0000
   1821 O         -25.4374    5.1473   49.8576 O.3     1  UNL1        0.0000
   1822 O         -23.6690   17.0427   42.0857 O.3     1  UNL1        0.0000
   1823 O         -24.4835    7.4088   49.3934 O.3     1  UNL1        0.0000
   1824 O         -25.3752   15.2856   41.5683 O.3     1  UNL1        0.0000
   1825 O         -23.0662    4.2931   51.1597 O.3     1  UNL1        0.0000
   1826 O         -24.8187   18.9663   40.3117 O.3     1  UNL1        0.0000
   1827 O         -22.2641    7.0813   51.1546 O.3     1  UNL1        0.0000
   1828 O         -27.0547   17.1306   40.2516 O.2     1  UNL1        0.0000
   1829 O         -17.5259   14.1558   40.2978 O.3     1  UNL1        0.0000
   1830 O         -31.6802   10.1954   51.0856 O.3     1  UNL1        0.0000
   1831 O         -18.3215   11.4015   40.3272 O.3     1  UNL1        0.0000
   1832 O         -29.4120   11.9778   51.1669 O.3     1  UNL1        0.0000
   1833 O         -22.4538   14.6128   42.2062 O.3     1  UNL1        0.0000
   1834 O         -27.1557    7.6090   49.1872 O.3     1  UNL1        0.0000
   1835 O         -19.9997   13.3877   39.2734 O.3     1  UNL1        0.0000
   1836 O         -24.5673   16.4897   39.1067 O.3     1  UNL1        0.0000
   1837 H         -23.3288    9.4134   47.5938 H       1  UNL1        0.0000
   1838 H         -27.2504    3.6343   45.9462 H       1  UNL1        0.0000
   1839 H         -22.5706   18.3282   44.8186 H       1  UNL1        0.0000
   1840 H         -22.2206   11.1533   46.1631 H       1  UNL1        0.0000
   1841 H         -27.1644   11.1957   46.7807 H       1  UNL1        0.0000
   1842 H         -30.7484    6.1357   45.8446 H       1  UNL1        0.0000
   1843 H         -25.7919    9.4288   47.8495 H       1  UNL1        0.0000
   1844 H         -26.0503   12.9552   45.3846 H       1  UNL1        0.0000
   1845 H         -21.4668   16.1522   44.3783 H       1  UNL1        0.0000
   1846 H         -35.0603   16.3856   44.8207 H      49  UNL49       0.0000
   1847 C         -24.0735   12.1471   45.6855 C.ar    1  UNL1        0.0000
   1848 C         -25.3083   10.1938   47.2444 C.ar    1  UNL1        0.0000
   1849 C         -20.8957   16.9657   44.8261 C.ar    1  UNL1        0.0000
   1850 C         -28.9272    4.9892   45.9614 C.2     1  UNL1        0.0000
   1851 C         -25.4696   12.1727   45.8673 C.ar    1  UNL1        0.0000
   1852 C         -23.9178   10.1791   47.0923 C.ar    1  UNL1        0.0000
   1853 C         -21.5218   18.1922   45.0771 C.ar    1  UNL1        0.0000
   1854 C         -28.2984    3.7615   45.6836 C.3     1  UNL1        0.0000
   1855 C         -19.5426   16.7794   45.1304 C.ar    1  UNL1        0.0000
   1856 C         -30.2806    5.1782   45.6264 C.3     1  UNL1        0.0000
   1857 C         -23.2987   11.1512   46.3063 C.ar    1  UNL1        0.0000
   1858 C         -26.0848   11.1900   46.6404 C.ar    1  UNL1        0.0000
   1859 O         -22.1965   13.0017   44.4852 O.3     1  UNL1        0.0000
   1860 O         -28.8178    7.1230   47.0184 O.2     1  UNL1        0.0000
   1861 O         -26.9935    5.8033   47.0884 O.2     1  UNL1        0.0000
   1862 O         -24.1637   14.0815   44.3075 O.3     1  UNL1        0.0000
   1863 N         -21.1268   18.4272   64.3092 N.pl3  45  UNL45       0.0000
   1864 N         -20.6637   17.6950   66.3131 N.pl3  45  UNL45       0.0000
   1865 C         -20.5066   17.1970   64.1594 C.2    45  UNL45       0.0000
   1866 C         -20.2160   16.7389   65.4171 C.2    45  UNL45       0.0000
   1867 C         -19.3490   18.7461   68.1554 C.3    45  UNL45       0.0000
   1868 C         -21.5015   19.3417   63.2236 C.3    45  UNL45       0.0000
   1869 C         -21.2072   18.7097   65.6188 C.3    45  UNL45       0.0000
   1870 C         -20.4101   17.7184   67.7702 C.3    45  UNL45       0.0000
   1871 H         -20.2500   16.7914   63.1906 H      45  UNL45       0.0000
   1872 H         -19.7155   15.8370   65.7436 H      45  UNL45       0.0000
   1873 H         -18.3877   18.5223   67.6803 H      45  UNL45       0.0000
   1874 H         -20.6224   19.4875   62.5868 H      45  UNL45       0.0000
   1875 H         -19.6389   19.7586   67.8484 H      45  UNL45       0.0000
   1876 H         -22.3218   18.8984   62.6538 H      45  UNL45       0.0000
   1877 H         -19.2250   18.7335   69.2457 H      45  UNL45       0.0000
   1878 H         -20.0908   16.7043   68.0429 H      45  UNL45       0.0000
   1879 H         -21.7954   20.2954   63.6686 H      45  UNL45       0.0000
   1880 H         -21.5790   19.6361   66.0324 H      45  UNL45       0.0000
   1881 H         -21.3718   17.9095   68.2593 H      45  UNL45       0.0000
   1882 N         -18.3173   21.4599   63.8626 N.3    46  UNL46       0.0000
   1883 C         -18.4311   22.8410   66.2742 C.3    46  UNL46       0.0000
   1884 C         -16.1272   19.9542   64.0505 C.3    46  UNL46       0.0000
   1885 O         -19.6634   23.5303   64.0355 O.2    46  UNL46       0.0000
   1886 O         -20.4722   21.5173   65.3020 O.2    46  UNL46       0.0000
   1887 O         -18.2919   19.1728   62.7944 O.2    46  UNL46       0.0000
   1888 O         -18.3343   19.2790   65.3029 O.2    46  UNL46       0.0000
   1889 F         -17.4002   23.6644   65.9673 F      46  UNL46       0.0000
   1890 F         -15.6698   20.7416   65.0511 F      46  UNL46       0.0000
   1891 F         -17.9245   21.7769   66.9532 F      46  UNL46       0.0000
   1892 F         -19.2916   23.5050   67.1003 F      46  UNL46       0.0000
   1893 F         -15.6393   20.4145   62.8624 F      46  UNL46       0.0000
   1894 F         -15.6398   18.6995   64.2375 F      46  UNL46       0.0000
   1895 S         -19.3648   22.2942   64.7407 S.O2   46  UNL46       0.0000
   1896 S         -17.9887   19.8977   64.0267 S.O2   46  UNL46       0.0000
   1897 TI        -22.4065   46.0673   11.0768 Ti      1  UNL1        0.0000
   1898 TI        -11.5761   48.9485    1.7120 Ti      1  UNL1        0.0000
   1899 TI        -18.3098   42.1311    9.2569 Ti      1  UNL1        0.0000
   1900 TI        -16.7986   51.2932    3.4838 Ti      1  UNL1        0.0000
   1901 TI        -17.7972   52.9715    1.5794 Ti      1  UNL1        0.0000
   1902 TI        -16.4216   41.8767   11.2102 Ti      1  UNL1        0.0000
   1903 TI        -21.4573   44.3314    9.1854 Ti      1  UNL1        0.0000
   1904 TI        -13.5639   49.2511    3.5595 Ti      1  UNL1        0.0000
   1905 H         -21.9047   49.9644   10.8574 H       1  UNL1        0.0000
   1906 H         -10.7673   45.0425    2.0327 H       1  UNL1        0.0000
   1907 H         -26.3664   45.3107   10.6944 H       1  UNL1        0.0000
   1908 H          -8.1939   50.9528    1.9127 H       1  UNL1        0.0000
   1909 H         -15.4460   37.8422   10.8243 H       1  UNL1        0.0000
   1910 H         -21.8557   52.3816    1.9015 H       1  UNL1        0.0000
   1911 H         -17.3028   51.3347   -0.2936 H       1  UNL1        0.0000
   1912 H         -13.4516   48.7058    0.0121 H       1  UNL1        0.0000
   1913 H         -15.9117   41.2096    5.6991 H       1  UNL1        0.0000
   1914 H         -18.5221   53.1302    7.1028 H       1  UNL1        0.0000
   1915 H         -25.5299   47.7200    8.8295 H       1  UNL1        0.0000
   1916 H          -8.8213   46.8642    4.0180 H       1  UNL1        0.0000
   1917 H         -23.2288   46.2726    5.4956 H       1  UNL1        0.0000
   1918 H         -20.8973   54.7994    3.9327 H       1  UNL1        0.0000
   1919 H         -17.4050   56.0744    2.4349 H       1  UNL1        0.0000
   1920 H         -10.9251   43.0236    3.2352 H       1  UNL1        0.0000
   1921 H         -14.7060   50.9734    2.1452 H       1  UNL1        0.0000
   1922 H         -19.3905   43.9795   10.5505 H       1  UNL1        0.0000
   1923 H         -12.1869   43.8116    9.5999 H       1  UNL1        0.0000
   1924 H         -13.6680   43.3425   10.3472 H       1  UNL1        0.0000
   1925 H         -11.6128   48.2452    8.5010 H       1  UNL1        0.0000
   1926 H         -12.1825   48.6038    6.8824 H       1  UNL1        0.0000
   1927 H         -12.6757   38.8568    9.4099 H       1  UNL1        0.0000
   1928 H         -13.9549   39.9574    9.8673 H       1  UNL1        0.0000
   1929 C         -10.9980   48.2073    4.5756 C.3     1  UNL1        0.0000
   1930 C         -23.3671   46.3287    8.2298 C.3     1  UNL1        0.0000
   1931 C         -15.7293   41.1204    8.3321 C.3     1  UNL1        0.0000
   1932 C         -18.7348   53.2637    4.4432 C.3     1  UNL1        0.0000
   1933 C         -10.1020   47.6030    5.5708 C.ar    1  UNL1        0.0000
   1934 C         -24.2990   46.9537    7.2528 C.2     1  UNL1        0.0000
   1935 C         -14.7891   40.5060    7.3850 C.ar    1  UNL1        0.0000
   1936 C         -19.6246   53.9105    5.4430 C.2     1  UNL1        0.0000
   1937 C         -10.3508   47.6779    6.9772 C.ar    1  UNL1        0.0000
   1938 C         -24.0826   46.8337    5.8647 C.3     1  UNL1        0.0000
   1939 C         -13.6597   39.7457    7.8380 C.ar    1  UNL1        0.0000
   1940 C         -20.7193   54.6835    4.9981 C.3     1  UNL1        0.0000
   1941 C         -19.3701   53.7398    6.7979 C.2     1  UNL1        0.0000
   1942 C         -15.0368   40.6382    6.0010 C.ar    1  UNL1        0.0000
   1943 C          -8.9683   46.9040    5.0950 C.ar    1  UNL1        0.0000
   1944 C         -25.3991   47.6461    7.7514 C.2     1  UNL1        0.0000
   1945 C         -10.7862   45.1215   -0.1114 C.2     1  UNL1        0.0000
   1946 C         -17.2560   56.9131   -0.0864 C.2     1  UNL1        0.0000
   1947 C          -8.3018   50.8846   -0.2374 C.2     1  UNL1        0.0000
   1948 C         -21.6601   52.4271   -0.2568 C.2     1  UNL1        0.0000
   1949 C         -16.0519   48.9500    5.4484 C.3     1  UNL1        0.0000
   1950 C         -20.8080   41.8557    7.3666 C.2     1  UNL1        0.0000
   1951 C         -10.9221   46.5764   -0.1346 C.2     1  UNL1        0.0000
   1952 C         -17.3487   55.4796   -0.1239 C.2     1  UNL1        0.0000
   1953 C          -9.5996   50.2678   -0.1905 C.2     1  UNL1        0.0000
   1954 C         -20.2578   52.8414   -0.2323 C.2     1  UNL1        0.0000
   1955 C         -10.7469   44.4524    1.1183 C.2     1  UNL1        0.0000
   1956 C         -21.8937   50.5528   11.7713 C.3     1  UNL1        0.0000
   1957 C          -7.6465   51.1594    0.9966 C.2     1  UNL1        0.0000
   1958 C         -26.9279   45.1313   11.6097 C.3     1  UNL1        0.0000
   1959 C         -12.2422   44.0869   11.6242 C.ar    1  UNL1        0.0000
   1960 C         -22.3573   52.1967    0.9557 C.3     1  UNL1        0.0000
   1961 C         -15.4044   37.3150   11.7734 C.ar    1  UNL1        0.0000
   1962 C         -17.2422   57.6643    1.1429 C.3     1  UNL1        0.0000
   1963 N         -17.1871   57.0655    2.3811 N.3     1  UNL1        0.0000
   1964 N         -12.8212   43.9041   10.3853 N.pl3   1  UNL1        0.0000
   1965 N         -11.4316   48.3241    7.5085 N.pl3   1  UNL1        0.0000
   1966 N         -13.3287   39.5875    9.1554 N.pl3   1  UNL1        0.0000
   1967 O         -12.1743   48.6124    4.9414 O.3     1  UNL1        0.0000
   1968 O         -22.5981   45.3778    7.8315 O.3     1  UNL1        0.0000
   1969 O         -15.3479   41.2449    9.5532 O.3     1  UNL1        0.0000
   1970 O         -18.8006   53.6934    3.2436 O.3     1  UNL1        0.0000
   1971 O         -17.9643   52.3065    4.8296 O.3     1  UNL1        0.0000
   1972 O         -16.8998   41.4888    7.9266 O.3     1  UNL1        0.0000
   1973 O         -10.5861   48.2880    3.3638 O.3     1  UNL1        0.0000
   1974 O         -23.4091   46.7649    9.4295 O.3     1  UNL1        0.0000
   1975 O         -13.2586   48.0332    2.3648 O.3     1  UNL1        0.0000
   1976 O         -20.9049   45.8918    9.9299 O.3     1  UNL1        0.0000
   1977 O         -12.3199   50.3204    2.8148 O.3     1  UNL1        0.0000
   1978 O         -22.6570   44.1671   10.4226 O.3     1  UNL1        0.0000
   1979 O         -18.0505   40.9591   10.5173 O.3     1  UNL1        0.0000
   1980 O         -16.2821   52.8545    2.7454 O.3     1  UNL1        0.0000
   1981 O         -17.0966   43.2206   10.0531 O.3     1  UNL1        0.0000
   1982 O         -17.9883   51.0974    2.2279 O.3     1  UNL1        0.0000
   1983 O         -15.6793   40.1049   11.8193 O.3     1  UNL1        0.0000
   1984 O         -17.4318   54.7782    0.9713 O.2     1  UNL1        0.0000
   1985 O         -14.8772   42.8931   11.8142 O.3     1  UNL1        0.0000
   1986 O         -19.6678   52.9424    0.9113 O.2     1  UNL1        0.0000
   1987 O         -10.1390   49.9676    0.9575 O.2     1  UNL1        0.0000
   1988 O         -24.2933   46.0072   11.7453 O.2     1  UNL1        0.0000
   1989 O         -10.9345   47.2133    0.9869 O.2     1  UNL1        0.0000
   1990 O         -22.0251   47.7896   11.8266 O.2     1  UNL1        0.0000
   1991 O         -15.0669   50.4246    2.8659 O.3     1  UNL1        0.0000
   1992 O         -19.7688   43.4208    9.8469 O.3     1  UNL1        0.0000
   1993 O         -12.6127   49.1995   -0.0669 O.3     1  UNL1        0.0000
   1994 O         -17.1804   52.3015   -0.2337 O.3     1  UNL1        0.0000
   1995 H         -15.9419   45.2253    8.2534 H       1  UNL1        0.0000
   1996 H         -19.8635   39.4461    6.6059 H       1  UNL1        0.0000
   1997 H         -15.1837   54.1400    5.4783 H      11  UNL11       0.0000
   1998 H         -14.8337   46.9651    6.8228 H       1  UNL1        0.0000
   1999 H         -19.7775   47.0075    7.4404 H       1  UNL1        0.0000
   2000 H         -23.3615   41.9475    6.5042 H       1  UNL1        0.0000
   2001 H         -18.4050   45.2406    8.5092 H       1  UNL1        0.0000
   2002 H         -18.6634   48.7670    6.0442 H       1  UNL1        0.0000
   2003 H         -14.0799   51.9640    5.0380 H      11  UNL11       0.0000
   2004 H         -27.6734   52.1974    5.4804 H      49  UNL49       0.0000
   2005 C         -16.6866   47.9589    6.3452 C.ar    1  UNL1        0.0000
   2006 C         -17.9213   46.0057    7.9040 C.ar    1  UNL1        0.0000
   2007 C         -13.5088   52.7775    5.4858 C.2    11  UNL11       0.0000
   2008 C         -21.5402   40.8010    6.6211 C.2     1  UNL1        0.0000
   2009 C         -18.0827   47.9845    6.5270 C.ar    1  UNL1        0.0000
   2010 C         -16.5309   45.9910    7.7520 C.ar    1  UNL1        0.0000
   2011 C         -14.1349   54.0040    5.7367 C.3    11  UNL11       0.0000
   2012 C         -20.9115   39.5734    6.3433 C.3     1  UNL1        0.0000
   2013 C         -12.1557   52.5913    5.7900 C.2    11  UNL11       0.0000
   2014 C         -22.8937   40.9900    6.2860 C.3     1  UNL1        0.0000
   2015 C         -15.9118   46.9630    6.9659 C.ar    1  UNL1        0.0000
   2016 C         -18.6979   47.0018    7.3001 C.ar    1  UNL1        0.0000
   2017 O         -14.8096   48.8135    5.1449 O.3     1  UNL1        0.0000
   2018 O         -21.4309   42.9348    7.6780 O.2     1  UNL1        0.0000
   2019 O         -19.6066   41.6151    7.7480 O.2     1  UNL1        0.0000
   2020 O         -16.7768   49.8933    4.9672 O.3     1  UNL1        0.0000
   2021 N         -13.7399   54.2390   24.9688 N.pl3  48  UNL48       0.0000
   2022 N         -13.2768   53.5068   26.9727 N.pl3  48  UNL48       0.0000
   2023 C         -13.1197   53.0088   24.8191 C.2    48  UNL48       0.0000
   2024 C         -12.8291   52.5507   26.0767 C.2    48  UNL48       0.0000
   2025 C         -11.9621   54.5579   28.8151 C.3    48  UNL48       0.0000
   2026 C         -14.1146   55.1536   23.8833 C.3    48  UNL48       0.0000
   2027 C         -13.8203   54.5215   26.2785 C.3    48  UNL48       0.0000
   2028 C         -13.0232   53.5302   28.4298 C.3    48  UNL48       0.0000
   2029 H         -12.8631   52.6032   23.8502 H      48  UNL48       0.0000
   2030 H         -12.3286   51.6488   26.4032 H      48  UNL48       0.0000
   2031 H         -11.0008   54.3341   28.3400 H      48  UNL48       0.0000
   2032 H         -13.2355   55.2993   23.2465 H      48  UNL48       0.0000
   2033 H         -12.2520   55.5704   28.5081 H      48  UNL48       0.0000
   2034 H         -14.9348   54.7102   23.3134 H      48  UNL48       0.0000
   2035 H         -11.8381   54.5454   29.9053 H      48  UNL48       0.0000
   2036 H         -12.7038   52.5161   28.7026 H      48  UNL48       0.0000
   2037 H         -14.4085   56.1072   24.3282 H      48  UNL48       0.0000
   2038 H         -14.1921   55.4479   26.6920 H      48  UNL48       0.0000
   2039 H         -13.9849   53.7213   28.9189 H      48  UNL48       0.0000
   2040 N         -10.9304   57.2717   24.5222 N.3    49  UNL49       0.0000
   2041 C         -11.0441   58.6528   26.9338 C.3    49  UNL49       0.0000
   2042 C          -8.7403   55.7660   24.7101 C.3    49  UNL49       0.0000
   2043 O         -12.2765   59.3421   24.6951 O.2    49  UNL49       0.0000
   2044 O         -13.0853   57.3291   25.9616 O.2    49  UNL49       0.0000
   2045 O         -10.9050   54.9846   23.4540 O.2    49  UNL49       0.0000
   2046 O         -10.9473   55.0908   25.9626 O.2    49  UNL49       0.0000
   2047 F         -10.0133   59.4762   26.6269 F      49  UNL49       0.0000
   2048 F          -8.2829   56.5534   25.7108 F      49  UNL49       0.0000
   2049 F         -10.5376   57.5888   27.6129 F      49  UNL49       0.0000
   2050 F         -11.9047   59.3168   27.7599 F      49  UNL49       0.0000
   2051 F          -8.2524   56.2263   23.5220 F      49  UNL49       0.0000
   2052 F          -8.2529   54.5113   24.8972 F      49  UNL49       0.0000
   2053 S         -11.9779   58.1060   25.4004 S.O2   49  UNL49       0.0000
   2054 S         -10.6018   55.7095   24.6864 S.O2   49  UNL49       0.0000
   2055 TI        -27.0412   39.0008   24.1715 Ti      1  UNL1        0.0000
   2056 TI        -16.2107   41.8821   14.8066 Ti      1  UNL1        0.0000
   2057 TI        -22.9445   35.0647   22.3515 Ti      1  UNL1        0.0000
   2058 TI        -21.4333   44.2268   16.5784 Ti      1  UNL1        0.0000
   2059 TI        -22.4319   45.9051   14.6741 Ti      1  UNL1        0.0000
   2060 TI        -21.0563   34.8103   24.3048 Ti      1  UNL1        0.0000
   2061 TI        -26.0920   37.2650   22.2800 Ti      1  UNL1        0.0000
   2062 TI        -18.1985   42.1846   16.6541 Ti      1  UNL1        0.0000
   2063 H         -26.5393   42.8979   23.9520 H       1  UNL1        0.0000
   2064 H         -15.4019   37.9760   15.1273 H       1  UNL1        0.0000
   2065 H         -31.0011   38.2442   23.7890 H       1  UNL1        0.0000
   2066 H         -12.8285   43.8864   15.0073 H       1  UNL1        0.0000
   2067 H         -20.0807   30.7758   23.9189 H       1  UNL1        0.0000
   2068 H         -26.4904   45.3152   14.9961 H       1  UNL1        0.0000
   2069 H         -21.9374   44.2683   12.8010 H       1  UNL1        0.0000
   2070 H         -18.0862   41.6394   13.1067 H       1  UNL1        0.0000
   2071 H         -20.5464   34.1432   18.7937 H       1  UNL1        0.0000
   2072 H         -23.1567   46.0638   20.1974 H       1  UNL1        0.0000
   2073 H         -30.1646   40.6536   21.9241 H       1  UNL1        0.0000
   2074 H         -13.4559   39.7977   17.1126 H       1  UNL1        0.0000
   2075 H         -27.8635   39.2061   18.5902 H       1  UNL1        0.0000
   2076 H         -25.5319   47.7330   17.0273 H       1  UNL1        0.0000
   2077 H         -22.0396   49.0079   15.5295 H       1  UNL1        0.0000
   2078 H         -15.5597   35.9572   16.3298 H       1  UNL1        0.0000
   2079 H         -19.3407   43.9069   15.2398 H       1  UNL1        0.0000
   2080 H         -24.0252   36.9131   23.6451 H       1  UNL1        0.0000
   2081 H         -16.8215   36.7452   22.6945 H       1  UNL1        0.0000
   2082 H         -18.3027   36.2761   23.4418 H       1  UNL1        0.0000
   2083 H         -16.2474   41.1788   21.5956 H       1  UNL1        0.0000
   2084 H         -16.8171   41.5374   19.9771 H       1  UNL1        0.0000
   2085 H         -17.3104   31.7903   22.5045 H       1  UNL1        0.0000
   2086 H         -18.5895   32.8909   22.9619 H       1  UNL1        0.0000
   2087 C         -15.6327   41.1408   17.6702 C.3     1  UNL1        0.0000
   2088 C         -28.0017   39.2622   21.3244 C.3     1  UNL1        0.0000
   2089 C         -20.3640   34.0540   21.4267 C.3     1  UNL1        0.0000
   2090 C         -23.3694   46.1973   17.5378 C.3     1  UNL1        0.0000
   2091 C         -14.7366   40.5365   18.6654 C.ar    1  UNL1        0.0000
   2092 C         -28.9336   39.8873   20.3474 C.2     1  UNL1        0.0000
   2093 C         -19.4238   33.4396   20.4796 C.ar    1  UNL1        0.0000
   2094 C         -24.2592   46.8441   18.5376 C.2     1  UNL1        0.0000
   2095 C         -14.9854   40.6114   20.0718 C.ar    1  UNL1        0.0000
   2096 C         -28.7172   39.7673   18.9594 C.3     1  UNL1        0.0000
   2097 C         -18.2943   32.6793   20.9326 C.ar    1  UNL1        0.0000
   2098 C         -25.3540   47.6171   18.0927 C.3     1  UNL1        0.0000
   2099 C         -24.0047   46.6733   19.8925 C.2     1  UNL1        0.0000
   2100 C         -19.6715   33.5717   19.0956 C.ar    1  UNL1        0.0000
   2101 C         -13.6030   39.8375   18.1897 C.ar    1  UNL1        0.0000
   2102 C         -30.0338   40.5797   20.8461 C.2     1  UNL1        0.0000
   2103 C         -15.4209   38.0551   12.9832 C.ar    1  UNL1        0.0000
   2104 C         -21.8906   49.8467   13.0082 C.2     1  UNL1        0.0000
   2105 C         -12.9365   43.8182   12.8572 C.ar    1  UNL1        0.0000
   2106 C         -26.2948   45.3606   12.8378 C.2     1  UNL1        0.0000
   2107 C         -20.6866   41.8836   18.5430 C.3     1  UNL1        0.0000
   2108 C         -25.4427   34.7892   20.4612 C.2     1  UNL1        0.0000
   2109 C         -15.5567   39.5099   12.9600 C.3     1  UNL1        0.0000
   2110 C         -21.9834   48.4132   12.9708 C.2     1  UNL1        0.0000
   2111 C         -14.2343   43.2014   12.9041 C.3     1  UNL1        0.0000
   2112 C         -24.8925   45.7750   12.8623 C.2     1  UNL1        0.0000
   2113 C         -15.3815   37.3860   14.2129 C.ar    1  UNL1        0.0000
   2114 C         -26.5284   43.4863   24.8659 C.3     1  UNL1        0.0000
   2115 C         -12.2812   44.0930   14.0912 C.ar    1  UNL1        0.0000
   2116 C         -31.5626   38.0648   24.7044 C.3     1  UNL1        0.0000
   2117 C         -16.8768   37.0205   24.7189 C.ar    1  UNL1        0.0000
   2118 C         -26.9920   45.1302   14.0503 C.3     1  UNL1        0.0000
   2119 C         -20.0390   30.2486   24.8680 C.ar    1  UNL1        0.0000
   2120 C         -21.8768   50.5979   14.2375 C.3     1  UNL1        0.0000
   2121 N         -21.8218   49.9990   15.4757 N.3     1  UNL1        0.0000
   2122 N         -17.4558   36.8376   23.4799 N.pl3   1  UNL1        0.0000
   2123 N         -16.0663   41.2577   20.6031 N.pl3   1  UNL1        0.0000
   2124 N         -17.9633   32.5211   22.2500 N.pl3   1  UNL1        0.0000
   2125 O         -16.8090   41.5459   18.0360 O.3     1  UNL1        0.0000
   2126 O         -27.2327   38.3114   20.9261 O.3     1  UNL1        0.0000
   2127 O         -19.9825   34.1784   22.6479 O.3     1  UNL1        0.0000
   2128 O         -23.4353   46.6270   16.3382 O.3     1  UNL1        0.0000
   2129 O         -22.5990   45.2401   17.9243 O.3     1  UNL1        0.0000
   2130 O         -21.5344   34.4224   21.0212 O.3     1  UNL1        0.0000
   2131 O         -15.2208   41.2216   16.4584 O.3     1  UNL1        0.0000
   2132 O         -28.0437   39.6985   22.5241 O.3     1  UNL1        0.0000
   2133 O         -17.8933   40.9667   15.4594 O.3     1  UNL1        0.0000
   2134 O         -25.5395   38.8253   23.0245 O.3     1  UNL1        0.0000
   2135 O         -16.9545   43.2540   15.9094 O.3     1  UNL1        0.0000
   2136 O         -27.2917   37.1006   23.5172 O.3     1  UNL1        0.0000
   2137 O         -22.6852   33.8927   23.6119 O.3     1  UNL1        0.0000
   2138 O         -20.9167   45.7881   15.8400 O.3     1  UNL1        0.0000
   2139 O         -21.7312   36.1542   23.1477 O.3     1  UNL1        0.0000
   2140 O         -22.6230   44.0310   15.3225 O.3     1  UNL1        0.0000
   2141 O         -20.3140   33.0385   24.9139 O.3     1  UNL1        0.0000
   2142 O         -22.0665   47.7117   14.0659 O.2     1  UNL1        0.0000
   2143 O         -19.5118   35.8266   24.9088 O.3     1  UNL1        0.0000
   2144 O         -24.3024   45.8760   14.0059 O.2     1  UNL1        0.0000
   2145 O         -14.7736   42.9012   14.0521 O.3     1  UNL1        0.0000
   2146 O         -28.9280   38.9408   24.8399 O.2     1  UNL1        0.0000
   2147 O         -15.5692   40.1469   14.0815 O.3     1  UNL1        0.0000
   2148 O         -26.6598   40.7231   24.9212 O.2     1  UNL1        0.0000
   2149 O         -19.7015   43.3582   15.9605 O.3     1  UNL1        0.0000
   2150 O         -24.4034   36.3544   22.9415 O.3     1  UNL1        0.0000
   2151 O         -17.2474   42.1330   13.0277 O.3     1  UNL1        0.0000
   2152 O         -21.8150   45.2351   12.8609 O.3     1  UNL1        0.0000
   2153 H         -20.5765   38.1588   21.3480 H       1  UNL1        0.0000
   2154 H         -24.4982   32.3797   19.7005 H       1  UNL1        0.0000
   2155 H         -19.8183   47.0736   18.5729 H      49  UNL49       0.0000
   2156 H         -19.4684   39.8987   19.9174 H       1  UNL1        0.0000
   2157 H         -24.4121   39.9410   20.5350 H       1  UNL1        0.0000
   2158 H         -27.9961   34.8811   19.5989 H       1  UNL1        0.0000
   2159 H         -23.0397   38.1741   21.6038 H       1  UNL1        0.0000
   2160 H         -23.2980   41.7006   19.1388 H       1  UNL1        0.0000
   2161 H         -18.7146   44.8976   18.1326 H      49  UNL49       0.0000
   2162 H         -32.3081   45.1309   18.5750 H      50  UNL50       0.0000
   2163 C         -21.3213   40.8925   19.4398 C.ar    1  UNL1        0.0000
   2164 C         -22.5560   38.9392   20.9987 C.ar    1  UNL1        0.0000
   2165 C         -18.1435   45.7111   18.5804 C.2    49  UNL49       0.0000
   2166 C         -26.1749   33.7346   19.7157 C.2     1  UNL1        0.0000
   2167 C         -22.7174   40.9180   19.6216 C.ar    1  UNL1        0.0000
   2168 C         -21.1656   38.9245   20.8466 C.ar    1  UNL1        0.0000
   2169 C         -18.7695   46.9376   18.8313 C.3    49  UNL49       0.0000
   2170 C         -25.5461   32.5069   19.4379 C.3     1  UNL1        0.0000
   2171 C         -16.7903   45.5248   18.8846 C.2    49  UNL49       0.0000
   2172 C         -27.5283   33.9235   19.3806 C.3     1  UNL1        0.0000
   2173 C         -20.5465   39.8966   20.0605 C.ar    1  UNL1        0.0000
   2174 C         -23.3325   39.9354   20.3947 C.ar    1  UNL1        0.0000
   2175 O         -19.4442   41.7471   18.2395 O.3     1  UNL1        0.0000
   2176 O         -26.0656   35.8684   20.7726 O.2     1  UNL1        0.0000
   2177 O         -24.2413   34.5487   20.8426 O.2     1  UNL1        0.0000
   2178 O         -21.4115   42.8269   18.0618 O.3     1  UNL1        0.0000
   2179 N         -18.3745   47.1725   38.0634 N.pl3  49  UNL49       0.0000
   2180 N         -17.9114   46.4403   40.0673 N.pl3  49  UNL49       0.0000
   2181 C         -17.7543   45.9424   37.9137 C.2    49  UNL49       0.0000
   2182 C         -17.4637   45.4843   39.1713 C.2    49  UNL49       0.0000
   2183 C         -16.5968   47.4915   41.9097 C.3    49  UNL49       0.0000
   2184 C         -18.7493   48.0871   36.9779 C.3    49  UNL49       0.0000
   2185 C         -18.4550   47.4551   39.3731 C.3    49  UNL49       0.0000
   2186 C         -17.6578   46.4638   41.5245 C.3    49  UNL49       0.0000
   2187 H         -17.4977   45.5368   36.9448 H      49  UNL49       0.0000
   2188 H         -16.9632   44.5824   39.4978 H      49  UNL49       0.0000
   2189 H         -15.6354   47.2676   41.4346 H      49  UNL49       0.0000
   2190 H         -17.8701   48.2329   36.3411 H      49  UNL49       0.0000
   2191 H         -16.8866   48.5040   41.6027 H      49  UNL49       0.0000
   2192 H         -19.5695   47.6438   36.4080 H      49  UNL49       0.0000
   2193 H         -16.4727   47.4789   42.9999 H      49  UNL49       0.0000
   2194 H         -17.3385   45.4496   41.7972 H      49  UNL49       0.0000
   2195 H         -19.0431   49.0408   37.4228 H      49  UNL49       0.0000
   2196 H         -18.8268   48.3815   39.7866 H      49  UNL49       0.0000
   2197 H         -18.6195   46.6549   42.0135 H      49  UNL49       0.0000
   2198 N         -15.5650   50.2053   37.6168 N.3    49  UNL49       0.0000
   2199 C         -15.6788   51.5864   40.0284 C.3    49  UNL49       0.0000
   2200 C         -13.3749   48.6996   37.8048 C.3    49  UNL49       0.0000
   2201 O         -16.9112   52.2756   37.7898 O.2    49  UNL49       0.0000
   2202 O         -17.7199   50.2626   39.0562 O.2    49  UNL49       0.0000
   2203 O         -15.5396   47.9182   36.5486 O.2    49  UNL49       0.0000
   2204 O         -15.5820   48.0244   39.0572 O.2    49  UNL49       0.0000
   2205 F         -14.6480   52.4097   39.7215 F      49  UNL49       0.0000
   2206 F         -12.9176   49.4870   38.8054 F      49  UNL49       0.0000
   2207 F         -15.1722   50.5223   40.7075 F      49  UNL49       0.0000
   2208 F         -16.5393   52.2504   40.8545 F      49  UNL49       0.0000
   2209 F         -12.8870   49.1599   36.6166 F      49  UNL49       0.0000
   2210 F         -12.8875   47.4449   37.9918 F      49  UNL49       0.0000
   2211 S         -16.6125   51.0396   38.4950 S.O2   49  UNL49       0.0000
   2212 S         -15.2364   48.6431   37.7810 S.O2   49  UNL49       0.0000
   2213 TI        -31.6758   31.9344   37.2661 Ti      1  UNL1        0.0000
   2214 TI        -20.8453   34.8156   27.9013 Ti      1  UNL1        0.0000
   2215 TI        -27.5791   27.9982   35.4461 Ti      1  UNL1        0.0000
   2216 TI        -26.0679   37.1604   29.6730 Ti      1  UNL1        0.0000
   2217 TI        -27.0665   38.8387   27.7687 Ti      1  UNL1        0.0000
   2218 TI        -25.6909   27.7439   37.3994 Ti      1  UNL1        0.0000
   2219 TI        -30.7266   30.1985   35.3746 Ti      1  UNL1        0.0000
   2220 TI        -22.8332   35.1182   29.7487 Ti      1  UNL1        0.0000
   2221 H         -31.1739   35.8315   37.0466 H       1  UNL1        0.0000
   2222 H         -20.0366   30.9096   28.2219 H       1  UNL1        0.0000
   2223 H         -35.6357   31.1778   36.8836 H       1  UNL1        0.0000
   2224 H         -17.4632   36.8199   28.1019 H       1  UNL1        0.0000
   2225 H         -24.7153   23.7093   37.0135 H       1  UNL1        0.0000
   2226 H         -31.1250   38.2488   28.0907 H       1  UNL1        0.0000
   2227 H         -26.5721   37.2019   25.8956 H       1  UNL1        0.0000
   2228 H         -22.7209   34.5729   26.2013 H       1  UNL1        0.0000
   2229 H         -25.1810   27.0768   31.8883 H       1  UNL1        0.0000
   2230 H         -27.7914   38.9974   33.2920 H       1  UNL1        0.0000
   2231 H         -34.7992   33.5872   35.0187 H       1  UNL1        0.0000
   2232 H         -18.0906   32.7313   30.2072 H       1  UNL1        0.0000
   2233 H         -32.4981   32.1397   31.6848 H       1  UNL1        0.0000
   2234 H         -30.1666   40.6665   30.1219 H       1  UNL1        0.0000
   2235 H         -26.6743   41.9415   28.6241 H       1  UNL1        0.0000
   2236 H         -20.1944   28.8907   29.4244 H       1  UNL1        0.0000
   2237 H         -23.9753   36.8405   28.3344 H       1  UNL1        0.0000
   2238 H         -28.6598   29.8466   36.7397 H       1  UNL1        0.0000
   2239 H         -21.4562   29.6787   35.7891 H       1  UNL1        0.0000
   2240 H         -22.9373   29.2097   36.5364 H       1  UNL1        0.0000
   2241 H         -20.8821   34.1124   34.6902 H       1  UNL1        0.0000
   2242 H         -21.4518   34.4709   33.0717 H       1  UNL1        0.0000
   2243 H         -21.9450   24.7239   35.5991 H       1  UNL1        0.0000
   2244 H         -23.2241   25.8245   36.0565 H       1  UNL1        0.0000
   2245 C         -20.2673   34.0744   30.7648 C.3     1  UNL1        0.0000
   2246 C         -32.6364   32.1958   34.4190 C.3     1  UNL1        0.0000
   2247 C         -24.9986   26.9875   34.5214 C.3     1  UNL1        0.0000
   2248 C         -28.0041   39.1309   30.6324 C.3     1  UNL1        0.0000
   2249 C         -19.3713   33.4701   31.7600 C.ar    1  UNL1        0.0000
   2250 C         -33.5683   32.8208   33.4420 C.2     1  UNL1        0.0000
   2251 C         -24.0584   26.3732   33.5742 C.ar    1  UNL1        0.0000
   2252 C         -28.8939   39.7777   31.6322 C.2     1  UNL1        0.0000
   2253 C         -19.6200   33.5450   33.1664 C.ar    1  UNL1        0.0000
   2254 C         -33.3519   32.7008   32.0540 C.3     1  UNL1        0.0000
   2255 C         -22.9290   25.6129   34.0272 C.ar    1  UNL1        0.0000
   2256 C         -29.9886   40.5506   31.1873 C.3     1  UNL1        0.0000
   2257 C         -28.6394   39.6069   32.9871 C.2     1  UNL1        0.0000
   2258 C         -24.3061   26.5053   32.1902 C.ar    1  UNL1        0.0000
   2259 C         -18.2376   32.7711   31.2843 C.ar    1  UNL1        0.0000
   2260 C         -34.6684   33.5132   33.9407 C.2     1  UNL1        0.0000
   2261 C         -20.0555   30.9886   26.0778 C.ar    1  UNL1        0.0000
   2262 C         -26.5253   42.7802   26.1029 C.2     1  UNL1        0.0000
   2263 C         -17.5711   36.7518   25.9518 C.ar    1  UNL1        0.0000
   2264 C         -30.9294   38.2942   25.9324 C.2     1  UNL1        0.0000
   2265 C         -25.3212   34.8172   31.6376 C.3     1  UNL1        0.0000
   2266 C         -30.0773   27.7228   33.5558 C.2     1  UNL1        0.0000
   2267 C         -20.1914   32.4435   26.0546 C.3     1  UNL1        0.0000
   2268 C         -26.6180   41.3467   26.0654 C.2     1  UNL1        0.0000
   2269 C         -18.8689   36.1349   25.9987 C.3     1  UNL1        0.0000
   2270 C         -29.5271   38.7085   25.9569 C.2     1  UNL1        0.0000
   2271 C         -20.0162   30.3195   27.3075 C.ar    1  UNL1        0.0000
   2272 C         -31.1630   36.4199   37.9605 C.3     1  UNL1        0.0000
   2273 C         -16.9158   37.0266   27.1858 C.ar    1  UNL1        0.0000
   2274 C         -36.1972   30.9984   37.7990 C.3     1  UNL1        0.0000
   2275 C         -21.5114   29.9541   37.8135 C.ar    1  UNL1        0.0000
   2276 C         -31.6266   38.0638   27.1449 C.3     1  UNL1        0.0000
   2277 C         -24.6737   23.1822   37.9626 C.ar    1  UNL1        0.0000
   2278 C         -26.5115   43.5314   27.3321 C.3     1  UNL1        0.0000
   2279 N         -26.4564   42.9326   28.5703 N.3     1  UNL1        0.0000
   2280 N         -22.0905   29.7712   36.5745 N.pl3   1  UNL1        0.0000
   2281 N         -20.7009   34.1912   33.6977 N.pl3   1  UNL1        0.0000
   2282 N         -22.5980   25.4546   35.3446 N.pl3   1  UNL1        0.0000
   2283 O         -21.4436   34.4795   31.1306 O.3     1  UNL1        0.0000
   2284 O         -31.8674   31.2449   34.0207 O.3     1  UNL1        0.0000
   2285 O         -24.6172   27.1120   35.7425 O.3     1  UNL1        0.0000
   2286 O         -28.0699   39.5605   29.4328 O.3     1  UNL1        0.0000
   2287 O         -27.2336   38.1737   31.0189 O.3     1  UNL1        0.0000
   2288 O         -26.1691   27.3560   34.1158 O.3     1  UNL1        0.0000
   2289 O         -19.8554   34.1552   29.5530 O.3     1  UNL1        0.0000
   2290 O         -32.6784   32.6321   35.6187 O.3     1  UNL1        0.0000
   2291 O         -22.5279   33.9003   28.5540 O.3     1  UNL1        0.0000
   2292 O         -30.1742   31.7589   36.1191 O.3     1  UNL1        0.0000
   2293 O         -21.5892   36.1876   29.0040 O.3     1  UNL1        0.0000
   2294 O         -31.9263   30.0342   36.6118 O.3     1  UNL1        0.0000
   2295 O         -27.3198   26.8263   36.7065 O.3     1  UNL1        0.0000
   2296 O         -25.5514   38.7217   28.9346 O.3     1  UNL1        0.0000
   2297 O         -26.3659   29.0877   36.2423 O.3     1  UNL1        0.0000
   2298 O         -27.2576   36.9646   28.4171 O.3     1  UNL1        0.0000
   2299 O         -24.9486   25.9720   38.0086 O.3     1  UNL1        0.0000
   2300 O         -26.7011   40.6453   27.1606 O.2     1  UNL1        0.0000
   2301 O         -24.1465   28.7602   38.0034 O.3     1  UNL1        0.0000
   2302 O         -28.9371   38.8096   27.1005 O.2     1  UNL1        0.0000
   2303 O         -19.4083   35.8348   27.1467 O.3     1  UNL1        0.0000
   2304 O         -33.5626   31.8744   37.9345 O.2     1  UNL1        0.0000
   2305 O         -20.2038   33.0804   27.1761 O.3     1  UNL1        0.0000
   2306 O         -31.2944   33.6567   38.0158 O.2     1  UNL1        0.0000
   2307 O         -24.3361   36.2917   29.0551 O.3     1  UNL1        0.0000
   2308 O         -29.0381   29.2879   36.0361 O.3     1  UNL1        0.0000
   2309 O         -21.8820   35.0666   26.1223 O.3     1  UNL1        0.0000
   2310 O         -26.4497   38.1687   25.9555 O.3     1  UNL1        0.0000
   2311 H         -25.2112   31.0924   34.4426 H       1  UNL1        0.0000
   2312 H         -29.1328   25.3132   32.7951 H       1  UNL1        0.0000
   2313 H         -24.4530   40.0072   31.6675 H      49  UNL49       0.0000
   2314 H         -24.1030   32.8322   33.0120 H       1  UNL1        0.0000
   2315 H         -29.0468   32.8746   33.6296 H       1  UNL1        0.0000
   2316 H         -32.6308   27.8146   32.6935 H       1  UNL1        0.0000
   2317 H         -27.6743   31.1077   34.6984 H       1  UNL1        0.0000
   2318 H         -27.9327   34.6342   32.2334 H       1  UNL1        0.0000
   2319 H         -23.3492   37.8311   31.2272 H      49  UNL49       0.0000
   2320 H         -36.9427   38.0645   31.6696 H      51  UNL51       0.0000
   2321 C         -25.9559   33.8261   32.5344 C.ar    1  UNL1        0.0000
   2322 C         -27.1906   31.8728   34.0933 C.ar    1  UNL1        0.0000
   2323 C         -22.7781   38.6447   31.6750 C.2    49  UNL49       0.0000
   2324 C         -30.8095   26.6681   32.8103 C.2     1  UNL1        0.0000
   2325 C         -27.3520   33.8516   32.7162 C.ar    1  UNL1        0.0000
   2326 C         -25.8002   31.8581   33.9412 C.ar    1  UNL1        0.0000
   2327 C         -23.4042   39.8712   31.9260 C.3    49  UNL49       0.0000
   2328 C         -30.1808   25.4405   32.5325 C.3     1  UNL1        0.0000
   2329 C         -21.4249   38.4584   31.9792 C.2    49  UNL49       0.0000
   2330 C         -32.1630   26.8571   32.4752 C.3     1  UNL1        0.0000
   2331 C         -25.1811   32.8301   33.1551 C.ar    1  UNL1        0.0000
   2332 C         -27.9672   32.8689   33.4893 C.ar    1  UNL1        0.0000
   2333 O         -24.0788   34.6806   31.3341 O.3     1  UNL1        0.0000
   2334 O         -30.7002   28.8019   33.8672 O.2     1  UNL1        0.0000
   2335 O         -28.8759   27.4822   33.9372 O.2     1  UNL1        0.0000
   2336 O         -26.0461   35.7605   31.1564 O.3     1  UNL1        0.0000
   2337 N         -23.0092   40.1061   51.1580 N.pl3  49  UNL49       0.0000
   2338 N         -22.5461   39.3739   53.1619 N.pl3  49  UNL49       0.0000
   2339 C         -22.3890   38.8760   51.0083 C.2    49  UNL49       0.0000
   2340 C         -22.0984   38.4178   52.2659 C.2    49  UNL49       0.0000
   2341 C         -21.2314   40.4251   55.0043 C.3    49  UNL49       0.0000
   2342 C         -23.3839   41.0207   50.0725 C.3    49  UNL49       0.0000
   2343 C         -23.0896   40.3886   52.4677 C.3    49  UNL49       0.0000
   2344 C         -22.2925   39.3973   54.6191 C.3    49  UNL49       0.0000
   2345 H         -22.1324   38.4703   50.0395 H      49  UNL49       0.0000
   2346 H         -21.5979   37.5159   52.5925 H      49  UNL49       0.0000
   2347 H         -20.2701   40.2012   54.5292 H      49  UNL49       0.0000
   2348 H         -22.5048   41.1665   49.4357 H      49  UNL49       0.0000
   2349 H         -21.5213   41.4375   54.6973 H      49  UNL49       0.0000
   2350 H         -24.2041   40.5774   49.5027 H      49  UNL49       0.0000
   2351 H         -21.1073   40.4125   56.0945 H      49  UNL49       0.0000
   2352 H         -21.9731   38.3832   54.8918 H      49  UNL49       0.0000
   2353 H         -23.6778   41.9744   50.5174 H      49  UNL49       0.0000
   2354 H         -23.4614   41.3150   52.8812 H      49  UNL49       0.0000
   2355 H         -23.2542   39.5884   55.1081 H      49  UNL49       0.0000
   2356 N         -20.1997   43.1388   50.7114 N.3    49  UNL49       0.0000
   2357 C         -20.3134   44.5199   53.1230 C.3    49  UNL49       0.0000
   2358 C         -18.0095   41.6331   50.8994 C.3    49  UNL49       0.0000
   2359 O         -21.5458   45.2092   50.8844 O.2    49  UNL49       0.0000
   2360 O         -22.3546   43.1962   52.1508 O.2    49  UNL49       0.0000
   2361 O         -20.1743   40.8517   49.6432 O.2    49  UNL49       0.0000
   2362 O         -20.2166   40.9580   52.1518 O.2    49  UNL49       0.0000
   2363 F         -19.2826   45.3433   52.8161 F      49  UNL49       0.0000
   2364 F         -17.5522   42.4205   51.9000 F      49  UNL49       0.0000
   2365 F         -19.8069   43.4559   53.8021 F      49  UNL49       0.0000
   2366 F         -21.1739   45.1839   53.9491 F      49  UNL49       0.0000
   2367 F         -17.5217   42.0935   49.7112 F      49  UNL49       0.0000
   2368 F         -17.5222   40.3784   51.0864 F      49  UNL49       0.0000
   2369 S         -21.2471   43.9731   51.5896 S.O2   49  UNL49       0.0000
   2370 S         -19.8711   41.5767   50.8756 S.O2   49  UNL49       0.0000
   2371 TI        -36.3105   24.8680   50.3607 Ti      1  UNL1        0.0000
   2372 TI        -25.4800   27.7492   40.9959 Ti      1  UNL1        0.0000
   2373 TI        -32.2138   20.9318   48.5407 Ti      1  UNL1        0.0000
   2374 TI        -30.7026   30.0939   42.7677 Ti      1  UNL1        0.0000
   2375 TI        -31.7012   31.7722   40.8633 Ti      1  UNL1        0.0000
   2376 TI        -30.3256   20.6774   50.4941 Ti      1  UNL1        0.0000
   2377 TI        -35.3613   23.1321   48.4692 Ti      1  UNL1        0.0000
   2378 TI        -27.4678   28.0517   42.8433 Ti      1  UNL1        0.0000
   2379 H         -35.8086   28.7651   50.1412 H      49  UNL49       0.0000
   2380 H         -24.6712   23.8431   41.3165 H       1  UNL1        0.0000
   2381 H         -40.2704   24.1114   49.9782 H      49  UNL49       0.0000
   2382 H         -22.0978   29.7535   41.1965 H       1  UNL1        0.0000
   2383 H         -29.3500   16.6429   50.1081 H       8  UNL8        0.0000
   2384 H         -35.7597   31.1823   41.1853 H       1  UNL1        0.0000
   2385 H         -31.2067   30.1354   38.9902 H       1  UNL1        0.0000
   2386 H         -27.3555   27.5065   39.2959 H       1  UNL1        0.0000
   2387 H         -29.8157   20.0103   44.9830 H       1  UNL1        0.0000
   2388 H         -32.4260   31.9309   46.3866 H       1  UNL1        0.0000
   2389 H         -39.4339   26.5207   48.1133 H       1  UNL1        0.0000
   2390 H         -22.7252   25.6649   43.3019 H       1  UNL1        0.0000
   2391 H         -37.1328   25.0733   44.7794 H       1  UNL1        0.0000
   2392 H         -34.8012   33.6001   43.2165 H       1  UNL1        0.0000
   2393 H         -31.3089   34.8751   41.7187 H       1  UNL1        0.0000
   2394 H         -24.8290   21.8243   42.5190 H       1  UNL1        0.0000
   2395 H         -28.6100   29.7740   41.4290 H       1  UNL1        0.0000
   2396 H         -33.2945   22.7802   49.8343 H       1  UNL1        0.0000
   2397 H         -26.0908   22.6123   48.8837 H      49  UNL49       0.0000
   2398 H         -27.5720   22.1432   49.6311 H      49  UNL49       0.0000
   2399 H         -25.5167   27.0459   47.7848 H       1  UNL1        0.0000
   2400 H         -26.0864   27.4045   46.1663 H       1  UNL1        0.0000
   2401 H         -26.5796   17.6575   48.6937 H       1  UNL1        0.0000
   2402 H         -27.8588   18.7580   49.1511 H       1  UNL1        0.0000
   2403 C         -24.9020   27.0080   43.8594 C.3     1  UNL1        0.0000
   2404 C         -37.2710   25.1294   47.5136 C.3     1  UNL1        0.0000
   2405 C         -29.6333   19.9211   47.6160 C.3     1  UNL1        0.0000
   2406 C         -32.6387   32.0644   43.7270 C.3     1  UNL1        0.0000
   2407 C         -24.0059   26.4036   44.8546 C.ar    1  UNL1        0.0000
   2408 C         -38.2029   25.7544   46.5366 C.2     1  UNL1        0.0000
   2409 C         -28.6931   19.3067   46.6688 C.ar    1  UNL1        0.0000
   2410 C         -33.5285   32.7112   44.7268 C.2     1  UNL1        0.0000
   2411 C         -24.2547   26.4786   46.2610 C.ar    1  UNL1        0.0000
   2412 C         -37.9865   25.6344   45.1486 C.3     1  UNL1        0.0000
   2413 C         -27.5636   18.5464   47.1218 C.ar    1  UNL1        0.0000
   2414 C         -34.6233   33.4842   44.2819 C.3     1  UNL1        0.0000
   2415 C         -33.2740   32.5405   46.0817 C.2     1  UNL1        0.0000
   2416 C         -28.9408   19.4389   45.2849 C.ar    1  UNL1        0.0000
   2417 C         -22.8723   25.7047   44.3789 C.ar    1  UNL1        0.0000
   2418 C         -39.3031   26.4468   47.0353 C.2     1  UNL1        0.0000
   2419 C         -24.6902   23.9222   39.1725 C.ar    1  UNL1        0.0000
   2420 C         -31.1599   35.7138   39.1975 C.2     1  UNL1        0.0000
   2421 C         -22.2057   29.6853   39.0464 C.ar    1  UNL1        0.0000
   2422 C         -35.5641   31.2278   39.0271 C.2     1  UNL1        0.0000
   2423 C         -29.9559   27.7507   44.7322 C.3     1  UNL1        0.0000
   2424 C         -34.7120   20.6564   46.6504 C.2     1  UNL1        0.0000
   2425 C         -24.8260   25.3771   39.1493 C.3     1  UNL1        0.0000
   2426 C         -31.2527   34.2803   39.1600 C.2     1  UNL1        0.0000
   2427 C         -23.5036   29.0685   39.0933 C.3     1  UNL1        0.0000
   2428 C         -34.1618   31.6421   39.0515 C.2     1  UNL1        0.0000
   2429 C         -24.6508   23.2531   40.4021 C.ar    1  UNL1        0.0000
   2430 C         -35.7977   29.3535   51.0551 C.3    52  UNL52       0.0000
   2431 C         -21.5504   29.9601   40.2804 C.ar    1  UNL1        0.0000
   2432 C         -40.8319   23.9320   50.8936 C.3    53  UNL53       0.0000
   2433 C         -26.1461   22.8876   50.9081 C.2    49  UNL49       0.0000
   2434 C         -36.2613   30.9973   40.2395 C.3     1  UNL1        0.0000
   2435 C         -29.3083   16.1157   51.0572 C.2     8  UNL8        0.0000
   2436 C         -31.1461   36.4650   40.4267 C.3     1  UNL1        0.0000
   2437 N         -31.0911   35.8662   41.6649 N.3     1  UNL1        0.0000
   2438 N         -26.7251   22.7048   49.6691 N.pl3  49  UNL49       0.0000
   2439 N         -25.3356   27.1248   46.7923 N.pl3   1  UNL1        0.0000
   2440 N         -27.2326   18.3882   48.4392 N.pl3   1  UNL1        0.0000
   2441 O         -26.0783   27.4131   44.2252 O.3     1  UNL1        0.0000
   2442 O         -36.5020   24.1785   47.1154 O.3     1  UNL1        0.0000
   2443 O         -29.2518   20.0456   48.8371 O.3     1  UNL1        0.0000
   2444 O         -32.7046   32.4941   42.5274 O.3     1  UNL1        0.0000
   2445 O         -31.8682   31.1072   44.1135 O.3     1  UNL1        0.0000
   2446 O         -30.8037   20.2895   47.2105 O.3     1  UNL1        0.0000
   2447 O         -24.4901   27.0887   42.6476 O.3     1  UNL1        0.0000
   2448 O         -37.3130   25.5656   48.7134 O.3     1  UNL1        0.0000
   2449 O         -27.1626   26.8338   41.6486 O.3     1  UNL1        0.0000
   2450 O         -34.8088   24.6924   49.2137 O.3     1  UNL1        0.0000
   2451 O         -26.2238   29.1211   42.0986 O.3     1  UNL1        0.0000
   2452 O         -36.5610   22.9678   49.7064 O.3     1  UNL1        0.0000
   2453 O         -31.9545   19.7598   49.8011 O.3     1  UNL1        0.0000
   2454 O         -30.1860   31.6552   42.0292 O.3     1  UNL1        0.0000
   2455 O         -31.0005   22.0213   49.3369 O.3     1  UNL1        0.0000
   2456 O         -31.8923   29.8981   41.5118 O.3     1  UNL1        0.0000
   2457 O         -29.5833   18.9056   51.1032 O.3     1  UNL1        0.0000
   2458 O         -31.3358   33.5788   40.2552 O.2     1  UNL1        0.0000
   2459 O         -28.7811   21.6938   51.0980 O.3     1  UNL1        0.0000
   2460 O         -33.5717   31.7431   40.1951 O.2     1  UNL1        0.0000
   2461 O         -24.0429   28.7683   40.2413 O.3     1  UNL1        0.0000
   2462 O         -38.1973   24.8079   51.0291 O.3     1  UNL1        0.0000
   2463 O         -24.8385   26.0140   40.2707 O.3     1  UNL1        0.0000
   2464 O         -35.9291   26.5903   51.1104 O.3     1  UNL1        0.0000
   2465 O         -28.9708   29.2253   42.1497 O.3     1  UNL1        0.0000
   2466 O         -33.6727   22.2215   49.1307 O.3     1  UNL1        0.0000
   2467 O         -26.5167   28.0002   39.2169 O.3     1  UNL1        0.0000
   2468 O         -31.0843   31.1022   39.0502 O.3     1  UNL1        0.0000
   2469 H         -29.8458   24.0260   47.5373 H       1  UNL1        0.0000
   2470 H         -33.7675   18.2468   45.8897 H       1  UNL1        0.0000
   2471 H         -29.0876   32.9407   44.7621 H      49  UNL49       0.0000
   2472 H         -28.7376   25.7658   46.1066 H       1  UNL1        0.0000
   2473 H         -33.6814   25.8082   46.7242 H       1  UNL1        0.0000
   2474 H         -37.2654   20.7482   45.7881 H       1  UNL1        0.0000
   2475 H         -32.3090   24.0413   47.7930 H       1  UNL1        0.0000
   2476 H         -32.5673   27.5677   45.3280 H       1  UNL1        0.0000
   2477 H         -27.9839   30.7647   44.3218 H      49  UNL49       0.0000
   2478 H         -41.5774   30.9981   44.7642 H      54  UNL54       0.0000
   2479 C         -30.5906   26.7596   45.6290 C.ar    1  UNL1        0.0000
   2480 C         -31.8253   24.8064   47.1879 C.ar    1  UNL1        0.0000
   2481 C         -27.4127   31.5782   44.7696 C.2    49  UNL49       0.0000
   2482 C         -35.4442   19.6017   45.9049 C.2     1  UNL1        0.0000
   2483 C         -31.9866   26.7852   45.8108 C.ar    1  UNL1        0.0000
   2484 C         -30.4349   24.7917   47.0358 C.ar    1  UNL1        0.0000
   2485 C         -28.0388   32.8047   45.0206 C.3    49  UNL49       0.0000
   2486 C         -34.8154   18.3741   45.6271 C.3     1  UNL1        0.0000
   2487 C         -26.0596   31.3920   45.0738 C.2    49  UNL49       0.0000
   2488 C         -36.7976   19.7907   45.5698 C.3     1  UNL1        0.0000
   2489 C         -29.8157   25.7637   46.2498 C.ar    1  UNL1        0.0000
   2490 C         -32.6018   25.8025   46.5839 C.ar    1  UNL1        0.0000
   2491 O         -28.7135   27.6142   44.4287 O.3     1  UNL1        0.0000
   2492 O         -35.3349   21.7355   46.9618 O.2     1  UNL1        0.0000
   2493 O         -33.5105   20.4158   47.0318 O.2     1  UNL1        0.0000
   2494 O         -30.6807   28.6940   44.2510 O.3     1  UNL1        0.0000
   2495 N         -27.6438   33.0397   64.2527 N.pl3  49  UNL49       0.0000
   2496 N         -27.1807   32.3075   66.2566 N.pl3  49  UNL49       0.0000
   2497 C         -27.0236   31.8095   64.1029 C.2    49  UNL49       0.0000
   2498 C         -26.7330   31.3514   65.3605 C.2    49  UNL49       0.0000
   2499 C         -25.8661   33.3586   68.0989 C.3    49  UNL49       0.0000
   2500 C         -28.0186   33.9543   63.1671 C.3    49  UNL49       0.0000
   2501 C         -27.7242   33.3222   65.5623 C.3    49  UNL49       0.0000
   2502 C         -26.9271   32.3309   67.7137 C.3    49  UNL49       0.0000
   2503 H         -26.7670   31.4039   63.1341 H      49  UNL49       0.0000
   2504 H         -26.2325   30.4495   65.6871 H      49  UNL49       0.0000
   2505 H         -24.9047   33.1348   67.6238 H      49  UNL49       0.0000
   2506 H         -27.1394   34.1000   62.5303 H      49  UNL49       0.0000
   2507 H         -26.1559   34.3711   67.7919 H      49  UNL49       0.0000
   2508 H         -28.8388   33.5109   62.5973 H      49  UNL49       0.0000
   2509 H         -25.7420   33.3461   69.1891 H      49  UNL49       0.0000
   2510 H         -26.6078   31.3168   67.9864 H      49  UNL49       0.0000
   2511 H         -28.3124   34.9079   63.6121 H      49  UNL49       0.0000
   2512 H         -28.0961   34.2486   65.9759 H      49  UNL49       0.0000
   2513 H         -27.8888   32.5220   68.2028 H      49  UNL49       0.0000
   2514 N         -24.8343   36.0724   63.8060 N.3    49  UNL49       0.0000
   2515 C         -24.9481   37.4535   66.2176 C.3    49  UNL49       0.0000
   2516 C         -22.6442   34.5667   63.9940 C.3    49  UNL49       0.0000
   2517 O         -26.1805   38.1428   63.9790 O.2    49  UNL49       0.0000
   2518 O         -26.9892   36.1298   65.2454 O.2    49  UNL49       0.0000
   2519 O         -24.8089   33.7853   62.7378 O.2    49  UNL49       0.0000
   2520 O         -24.8513   33.8915   65.2464 O.2    49  UNL49       0.0000
   2521 F         -23.9173   38.2769   65.9108 F      49  UNL49       0.0000
   2522 F         -22.1869   35.3541   64.9946 F      49  UNL49       0.0000
   2523 F         -24.4415   36.3895   66.8967 F      49  UNL49       0.0000
   2524 F         -25.8086   38.1175   67.0437 F      49  UNL49       0.0000
   2525 F         -22.1563   35.0270   62.8059 F      49  UNL49       0.0000
   2526 F         -22.1568   33.3120   64.1810 F      49  UNL49       0.0000
   2527 S         -25.8818   36.9067   64.6842 S.O2   49  UNL49       0.0000
   2528 S         -24.5057   34.5102   63.9702 S.O2   49  UNL49       0.0000
   2529 TI         13.1440    1.6725   11.3360 Ti      1  UNL1        0.0000
   2530 TI         23.9745    4.5537    1.9712 Ti      1  UNL1        0.0000
   2531 TI         17.2407   -2.2637    9.5160 Ti      1  UNL1        0.0000
   2532 TI         18.7519    6.8984    3.7430 Ti      1  UNL1        0.0000
   2533 TI         17.7533    8.5767    1.8386 Ti      1  UNL1        0.0000
   2534 TI         19.1289   -2.5180   11.4694 Ti      1  UNL1        0.0000
   2535 TI         14.0932   -0.0634    9.4445 Ti      1  UNL1        0.0000
   2536 TI         21.9867    4.8563    3.8186 Ti      1  UNL1        0.0000
   2537 H          13.6459    5.5696   11.1165 H       1  UNL1        0.0000
   2538 H          24.7833    0.6477    2.2918 H       1  UNL1        0.0000
   2539 H           9.1841    0.9159   10.9535 H       1  UNL1        0.0000
   2540 H          27.3566    6.5580    2.1718 H       1  UNL1        0.0000
   2541 H          20.1045   -6.5526   11.0834 H       1  UNL1        0.0000
   2542 H          13.6948    7.9868    2.1606 H       1  UNL1        0.0000
   2543 H          18.2478    6.9399   -0.0345 H       1  UNL1        0.0000
   2544 H          22.0989    4.3110    0.2712 H       1  UNL1        0.0000
   2545 H          19.6388   -3.1852    5.9583 H       1  UNL1        0.0000
   2546 H          17.0284    8.7355    7.3619 H       1  UNL1        0.0000
   2547 H          10.0206    3.3252    9.0886 H       1  UNL1        0.0000
   2548 H          26.7292    2.4694    4.2772 H       1  UNL1        0.0000
   2549 H          12.3217    1.8778    5.7547 H       1  UNL1        0.0000
   2550 H          14.6532   10.4046    4.1918 H       1  UNL1        0.0000
   2551 H          18.1455   11.6796    2.6940 H       1  UNL1        0.0000
   2552 H          24.6254   -1.3712    3.4943 H      55  UNL55       0.0000
   2553 H          20.8445    6.5786    2.4043 H       1  UNL1        0.0000
   2554 H          16.1600   -0.4153   10.8096 H       1  UNL1        0.0000
   2555 H          23.3636   -0.5832    9.8590 H       1  UNL1        0.0000
   2556 H          21.8825   -1.0523   10.6064 H       1  UNL1        0.0000
   2557 H          23.9378    3.8504    8.7601 H       1  UNL1        0.0000
   2558 H          23.3680    4.2090    7.1416 H       1  UNL1        0.0000
   2559 H          22.8748   -5.5380    9.6690 H       1  UNL1        0.0000
   2560 H          21.5957   -4.4374   10.1264 H       1  UNL1        0.0000
   2561 C          24.5525    3.8125    4.8347 C.3     1  UNL1        0.0000
   2562 C          12.1835    1.9339    8.4889 C.3     1  UNL1        0.0000
   2563 C          19.8212   -3.2744    8.5913 C.3     1  UNL1        0.0000
   2564 C          16.8158    8.8689    4.7023 C.3     1  UNL1        0.0000
   2565 C          25.4485    3.2082    5.8299 C.ar    1  UNL1        0.0000
   2566 C          11.2515    2.5589    7.5119 C.ar    1  UNL1        0.0000
   2567 C          20.7614   -3.8888    7.6441 C.2     1  UNL1        0.0000
   2568 C          15.9259    9.5157    5.7021 C.ar    1  UNL1        0.0000
   2569 C          25.1998    3.2831    7.2363 C.ar    1  UNL1        0.0000
   2570 C          11.4679    2.4389    6.1239 C.ar    1  UNL1        0.0000
   2571 C          21.8908   -4.6491    8.0971 C.2     1  UNL1        0.0000
   2572 C          14.8312   10.2887    5.2572 C.ar    1  UNL1        0.0000
   2573 C          16.1804    9.3450    7.0570 C.ar    1  UNL1        0.0000
   2574 C          20.5137   -3.7566    6.2602 C.3     1  UNL1        0.0000
   2575 C          26.5822    2.5092    5.3542 C.ar    1  UNL1        0.0000
   2576 C          10.1514    3.2513    8.0106 C.ar    1  UNL1        0.0000
   2577 C          24.7643    0.7267    0.1477 C.2     1  UNL1        0.0000
   2578 C          18.2946   12.5183    0.1728 C.2     1  UNL1        0.0000
   2579 C          27.2487    6.4898    0.0217 C.2     1  UNL1        0.0000
   2580 C          13.8904    8.0323    0.0024 C.2     1  UNL1        0.0000
   2581 C          19.4986    4.5553    5.7075 C.3     1  UNL1        0.0000
   2582 C          14.7425   -2.5391    7.6257 C.2     1  UNL1        0.0000
   2583 C          24.6284    2.1816    0.1245 C.2     1  UNL1        0.0000
   2584 C          18.2018   11.0848    0.1353 C.2     1  UNL1        0.0000
   2585 C          25.9509    5.8730    0.0686 C.2     1  UNL1        0.0000
   2586 C          15.2927    8.4466    0.0268 C.2     1  UNL1        0.0000
   2587 C          24.8036    0.0576    1.3774 C.3     1  UNL1        0.0000
   2588 C          13.6568    6.1580   12.0304 C.ar    1  UNL1        0.0000
   2589 C          27.9040    6.7646    1.2557 C.2     1  UNL1        0.0000
   2590 C           8.6226    0.7365   11.8689 C.ar    1  UNL1        0.0000
   2591 C          23.3084   -0.3079   11.8834 C.ar    1  UNL1        0.0000
   2592 C          13.1932    7.8019    1.2148 C.2     1  UNL1        0.0000
   2593 C          20.1461   -7.0797   12.0325 C.3     1  UNL1        0.0000
   2594 C          18.3083   13.2695    1.4020 C.2     1  UNL1        0.0000
   2595 N          18.3634   12.6707    2.6402 N.pl3   1  UNL1        0.0000
   2596 N          22.7293   -0.4907   10.6444 N.pl3   1  UNL1        0.0000
   2597 N          24.1189    3.9293    7.7676 N.pl3   1  UNL1        0.0000
   2598 N          22.2218   -4.8073    9.4145 N.pl3   1  UNL1        0.0000
   2599 O          23.3762    4.2176    5.2005 O.3     1  UNL1        0.0000
   2600 O          12.9524    0.9830    8.0907 O.3     1  UNL1        0.0000
   2601 O          20.2026   -3.1499    9.8124 O.3     1  UNL1        0.0000
   2602 O          16.7499    9.2986    3.5027 O.3     1  UNL1        0.0000
   2603 O          17.5862    7.9117    5.0888 O.3     1  UNL1        0.0000
   2604 O          18.6508   -2.9060    8.1857 O.3     1  UNL1        0.0000
   2605 O          24.9644    3.8932    3.6229 O.3     1  UNL1        0.0000
   2606 O          12.1414    2.3701    9.6886 O.3     1  UNL1        0.0000
   2607 O          22.2919    3.6384    2.6239 O.3     1  UNL1        0.0000
   2608 O          14.6457    1.4970   10.1890 O.3     1  UNL1        0.0000
   2609 O          23.2307    5.9256    3.0739 O.3     1  UNL1        0.0000
   2610 O          12.8935   -0.2277   10.6817 O.3     1  UNL1        0.0000
   2611 O          17.5000   -3.4357   10.7764 O.3     1  UNL1        0.0000
   2612 O          19.2684    8.4597    3.0045 O.3     1  UNL1        0.0000
   2613 O          18.4539   -1.1742   10.3122 O.3     1  UNL1        0.0000
   2614 O          17.5622    6.7026    2.4870 O.3     1  UNL1        0.0000
   2615 O          19.8712   -4.2899   12.0785 O.2     1  UNL1        0.0000
   2616 O          18.1187   10.3834    1.2305 O.2     1  UNL1        0.0000
   2617 O          20.6734   -1.5017   12.0733 O.3     1  UNL1        0.0000
   2618 O          15.8828    8.5476    1.1704 O.2     1  UNL1        0.0000
   2619 O          25.4115    5.5728    1.2166 O.2     1  UNL1        0.0000
   2620 O          11.2572    1.6124   12.0044 O.3     1  UNL1        0.0000
   2621 O          24.6160    2.8185    1.2460 O.2     1  UNL1        0.0000
   2622 O          13.5254    3.3948   12.0857 O.3     1  UNL1        0.0000
   2623 O          20.4837    6.0298    3.1250 O.3     1  UNL1        0.0000
   2624 O          15.7817   -0.9740   10.1060 O.3     1  UNL1        0.0000
   2625 O          22.9378    4.8047    0.1922 O.3     1  UNL1        0.0000
   2626 O          18.3701    7.9067    0.0255 O.3     1  UNL1        0.0000
   2627 H          19.6086    0.8305    8.5126 H       1  UNL1        0.0000
   2628 H          15.6870   -4.9487    6.8650 H       1  UNL1        0.0000
   2629 H          20.3669    9.7452    5.7374 H       1  UNL1        0.0000
   2630 H          20.7168    2.5703    7.0819 H       1  UNL1        0.0000
   2631 H          15.7730    2.6127    7.6995 H       1  UNL1        0.0000
   2632 H          12.1891   -2.4473    6.7634 H       1  UNL1        0.0000
   2633 H          17.1455    0.8458    8.7683 H       1  UNL1        0.0000
   2634 H          16.8872    4.3722    6.3033 H       1  UNL1        0.0000
   2635 H          21.4706    7.5692    5.2971 H       1  UNL1        0.0000
   2636 H           7.8771    7.8026    5.7395 H       1  UNL1        0.0000
   2637 C          18.8639    3.5641    6.6043 C.ar    1  UNL1        0.0000
   2638 C          17.6292    1.6109    8.1632 C.ar    1  UNL1        0.0000
   2639 C          22.0417    8.3828    5.7449 C.ar    1  UNL1        0.0000
   2640 C          14.0103   -3.5938    6.8802 C.2     1  UNL1        0.0000
   2641 C          17.4678    3.5897    6.7861 C.ar    1  UNL1        0.0000
   2642 C          19.0196    1.5962    8.0111 C.ar    1  UNL1        0.0000
   2643 C          21.4156    9.6092    5.9959 C.ar    1  UNL1        0.0000
   2644 C          14.6390   -4.8214    6.6024 C.3     1  UNL1        0.0000
   2645 C          23.3949    8.1965    6.0491 C.ar    1  UNL1        0.0000
   2646 C          12.6568   -3.4048    6.5451 C.3     1  UNL1        0.0000
   2647 C          19.6387    2.5682    7.2250 C.ar    1  UNL1        0.0000
   2648 C          16.8526    2.6070    7.5592 C.ar    1  UNL1        0.0000
   2649 O          20.7410    4.4187    5.4040 O.3     1  UNL1        0.0000
   2650 O          14.1196   -1.4600    7.9371 O.2     1  UNL1        0.0000
   2651 O          15.9439   -2.7797    8.0071 O.2     1  UNL1        0.0000
   2652 O          18.7737    5.4985    5.2263 O.3     1  UNL1        0.0000
   2653 N          21.8107    9.8442   25.2280 N.pl3  49  UNL49       0.0000
   2654 N          22.2737    9.1120   27.2318 N.pl3  49  UNL49       0.0000
   2655 C          22.4309    8.6140   25.0782 C.2    49  UNL49       0.0000
   2656 C          22.7214    8.1559   26.3358 C.2    49  UNL49       0.0000
   2657 C          23.5884   10.1631   29.0742 C.3    49  UNL49       0.0000
   2658 C          21.4359   10.7588   24.1424 C.3    49  UNL49       0.0000
   2659 C          21.7302   10.1267   26.5376 C.3    49  UNL49       0.0000
   2660 C          22.5274    9.1354   28.6890 C.3    49  UNL49       0.0000
   2661 H          22.6875    8.2084   24.1094 H      49  UNL49       0.0000
   2662 H          23.2220    7.2540   26.6624 H      49  UNL49       0.0000
   2663 H          24.5497    9.9393   28.5991 H      49  UNL49       0.0000
   2664 H          22.3150   10.9045   23.5056 H      49  UNL49       0.0000
   2665 H          23.2986   11.1756   28.7672 H      49  UNL49       0.0000
   2666 H          20.6157   10.3154   23.5726 H      49  UNL49       0.0000
   2667 H          23.7125   10.1506   30.1644 H      49  UNL49       0.0000
   2668 H          22.8467    8.1213   28.9617 H      49  UNL49       0.0000
   2669 H          21.1421   11.7125   24.5873 H      49  UNL49       0.0000
   2670 H          21.3584   11.0531   26.9512 H      49  UNL49       0.0000
   2671 H          21.5657    9.3265   29.1780 H      49  UNL49       0.0000
   2672 N          24.6201   12.8769   24.7813 N.3    49  UNL49       0.0000
   2673 C          24.5064   14.2580   27.1929 C.3    49  UNL49       0.0000
   2674 C          26.8103   11.3712   24.9693 C.3    49  UNL49       0.0000
   2675 O          23.2740   14.9473   24.9543 O.2    49  UNL49       0.0000
   2676 O          22.4652   12.9343   26.2207 O.2    49  UNL49       0.0000
   2677 O          24.6456   10.5898   23.7131 O.2    49  UNL49       0.0000
   2678 O          24.6032   10.6960   26.2217 O.2    49  UNL49       0.0000
   2679 F          25.5372   15.0814   26.8861 F      49  UNL49       0.0000
   2680 F          27.2676   12.1586   25.9699 F      49  UNL49       0.0000
   2681 F          25.0129   13.1940   27.8720 F      49  UNL49       0.0000
   2682 F          23.6459   14.9220   28.0190 F      49  UNL49       0.0000
   2683 F          27.2981   11.8315   23.7811 F      49  UNL49       0.0000
   2684 F          27.2976   10.1165   25.1563 F      49  UNL49       0.0000
   2685 S          23.5727   13.7112   25.6595 S.O2   49  UNL49       0.0000
   2686 S          24.9487   11.3147   24.9455 S.O2   49  UNL49       0.0000
   2687 TI          8.5094   -5.3939   24.4306 Ti      1  UNL1        0.0000
   2688 TI         19.3398   -2.5127   15.0658 Ti      1  UNL1        0.0000
   2689 TI         12.6060   -9.3301   22.6106 Ti      1  UNL1        0.0000
   2690 TI         14.1172   -0.1680   16.8376 Ti      1  UNL1        0.0000
   2691 TI         13.1187    1.5103   14.9332 Ti      1  UNL1        0.0000
   2692 TI         14.4942   -9.5845   24.5640 Ti      1  UNL1        0.0000
   2693 TI          9.4585   -7.1298   22.5391 Ti      1  UNL1        0.0000
   2694 TI         17.3520   -2.2102   16.9132 Ti      1  UNL1        0.0000
   2695 H           9.0112   -1.4969   24.2111 H       1  UNL1        0.0000
   2696 H          20.1486   -6.4188   15.3865 H       1  UNL1        0.0000
   2697 H           4.5495   -6.1506   24.0481 H       1  UNL1        0.0000
   2698 H          22.7220   -0.5084   15.2664 H       1  UNL1        0.0000
   2699 H          15.4698  -13.6190   24.1780 H       1  UNL1        0.0000
   2700 H           9.0601    0.9204   15.2552 H       1  UNL1        0.0000
   2701 H          13.6131   -0.1265   13.0601 H       1  UNL1        0.0000
   2702 H          17.4643   -2.7554   13.3658 H       1  UNL1        0.0000
   2703 H          15.0041  -10.2516   19.0529 H       1  UNL1        0.0000
   2704 H          12.3938    1.6690   20.4565 H       1  UNL1        0.0000
   2705 H           5.3859   -3.7412   22.1832 H       1  UNL1        0.0000
   2706 H          22.0946   -4.5971   17.3718 H       1  UNL1        0.0000
   2707 H           7.6870   -5.1886   18.8494 H       1  UNL1        0.0000
   2708 H          10.0186    3.3382   17.2864 H       1  UNL1        0.0000
   2709 H          13.5109    4.6131   15.7886 H       1  UNL1        0.0000
   2710 H          19.9908   -8.4376   16.5889 H      56  UNL56       0.0000
   2711 H          16.2099   -0.4879   15.4989 H       1  UNL1        0.0000
   2712 H          11.5253   -7.4817   23.9042 H       1  UNL1        0.0000
   2713 H          18.7290   -7.6496   22.9536 H       1  UNL1        0.0000
   2714 H          17.2479   -8.1187   23.7010 H       1  UNL1        0.0000
   2715 H          19.3031   -3.2160   21.8547 H       1  UNL1        0.0000
   2716 H          18.7334   -2.8574   20.2362 H       1  UNL1        0.0000
   2717 H          18.2402  -12.6045   22.7636 H       1  UNL1        0.0000
   2718 H          16.9610  -11.5039   23.2210 H       1  UNL1        0.0000
   2719 C          19.9179   -3.2540   17.9293 C.3     1  UNL1        0.0000
   2720 C           7.5488   -5.1326   21.5835 C.3     1  UNL1        0.0000
   2721 C          15.1865  -10.3408   21.6859 C.3     1  UNL1        0.0000
   2722 C          12.1811    1.8025   17.7969 C.3     1  UNL1        0.0000
   2723 C          20.8139   -3.8583   18.9245 C.ar    1  UNL1        0.0000
   2724 C           6.6169   -4.5075   20.6065 C.ar    1  UNL1        0.0000
   2725 C          16.1267  -10.9552   20.7387 C.2     1  UNL1        0.0000
   2726 C          11.2913    2.4493   18.7967 C.ar    1  UNL1        0.0000
   2727 C          20.5651   -3.7834   20.3309 C.ar    1  UNL1        0.0000
   2728 C           6.8333   -4.6275   19.2185 C.ar    1  UNL1        0.0000
   2729 C          17.2562  -11.7155   21.1917 C.2     1  UNL1        0.0000
   2730 C          10.1966    3.2223   18.3518 C.ar    1  UNL1        0.0000
   2731 C          11.5458    2.2785   20.1516 C.ar    1  UNL1        0.0000
   2732 C          15.8790  -10.8231   19.3548 C.3     1  UNL1        0.0000
   2733 C          21.9476   -4.5573   18.4488 C.ar    1  UNL1        0.0000
   2734 C           5.5167   -3.8151   21.1052 C.ar    1  UNL1        0.0000
   2735 C          20.1296   -6.3397   13.2424 C.2     1  UNL1        0.0000
   2736 C          13.6599    5.4519   13.2674 C.ar    1  UNL1        0.0000
   2737 C          22.6141   -0.5766   13.1164 C.ar    1  UNL1        0.0000
   2738 C           9.2557    0.9658   13.0970 C.ar    1  UNL1        0.0000
   2739 C          14.8639   -2.5112   18.8022 C.3     1  UNL1        0.0000
   2740 C          10.1079   -9.6056   20.7203 C.2     1  UNL1        0.0000
   2741 C          19.9938   -4.8849   13.2192 C.2     1  UNL1        0.0000
   2742 C          13.5672    4.0184   13.2299 C.3     1  UNL1        0.0000
   2743 C          21.3162   -1.1934   13.1632 C.3     1  UNL1        0.0000
   2744 C          10.6580    1.3802   13.1214 C.3     1  UNL1        0.0000
   2745 C          20.1690   -7.0088   14.4720 C.3     1  UNL1        0.0000
   2746 C           9.0222   -0.9085   25.1250 C.ar    1  UNL1        0.0000
   2747 C          23.2694   -0.3018   14.3503 C.ar    1  UNL1        0.0000
   2748 C           3.9880   -6.3299   24.9635 C.ar    1  UNL1        0.0000
   2749 C          18.6737   -7.3743   24.9780 C.ar    1  UNL1        0.0000
   2750 C           8.5585    0.7354   14.3094 C.ar    1  UNL1        0.0000
   2751 C          15.5115  -14.1462   25.1271 C.3     1  UNL1        0.0000
   2752 C          13.6737    6.2031   14.4966 C.ar    1  UNL1        0.0000
   2753 N          13.7287    5.6042   15.7348 N.pl3   1  UNL1        0.0000
   2754 N          18.0947   -7.5571   23.7390 N.pl3   1  UNL1        0.0000
   2755 N          19.4842   -3.1371   20.8622 N.pl3   1  UNL1        0.0000
   2756 N          17.5872  -11.8737   22.5091 N.pl3   1  UNL1        0.0000
   2757 O          18.7415   -2.8489   18.2951 O.3     1  UNL1        0.0000
   2758 O           8.3178   -6.0834   21.1853 O.3     1  UNL1        0.0000
   2759 O          15.5680  -10.2164   22.9070 O.3     1  UNL1        0.0000
   2760 O          12.1152    2.2322   16.5973 O.3     1  UNL1        0.0000
   2761 O          12.9516    0.8453   18.1834 O.3     1  UNL1        0.0000
   2762 O          14.0161   -9.9724   21.2804 O.3     1  UNL1        0.0000
   2763 O          20.3297   -3.1732   16.7175 O.3     1  UNL1        0.0000
   2764 O           7.5068   -4.6963   22.7833 O.3     1  UNL1        0.0000
   2765 O          17.6572   -3.4281   15.7185 O.3     1  UNL1        0.0000
   2766 O          10.0110   -5.5695   23.2836 O.3     1  UNL1        0.0000
   2767 O          18.5960   -1.1408   16.1685 O.3     1  UNL1        0.0000
   2768 O           8.2588   -7.2942   23.7763 O.3     1  UNL1        0.0000
   2769 O          12.8653  -10.5021   23.8710 O.3     1  UNL1        0.0000
   2770 O          14.6338    1.3933   16.0991 O.3     1  UNL1        0.0000
   2771 O          13.8193   -8.2406   23.4068 O.3     1  UNL1        0.0000
   2772 O          12.9275   -0.3638   15.5817 O.3     1  UNL1        0.0000
   2773 O          15.2366  -11.3563   25.1731 O.2     1  UNL1        0.0000
   2774 O          13.4840    3.3169   14.3251 O.3     1  UNL1        0.0000
   2775 O          16.0387   -8.5682   25.1679 O.3     1  UNL1        0.0000
   2776 O          11.2481    1.4812   14.2650 O.3     1  UNL1        0.0000
   2777 O          20.7769   -1.4936   14.3112 O.3     1  UNL1        0.0000
   2778 O           6.6226   -5.4540   25.0990 O.3     1  UNL1        0.0000
   2779 O          19.9813   -4.2479   14.3406 O.2     1  UNL1        0.0000
   2780 O           8.8908   -3.6716   25.1803 O.3     1  UNL1        0.0000
   2781 O          15.8490   -1.0366   16.2196 O.3     1  UNL1        0.0000
   2782 O          11.1471   -8.0404   23.2006 O.3     1  UNL1        0.0000
   2783 O          18.3031   -2.2617   13.2868 O.3     1  UNL1        0.0000
   2784 O          13.7355    0.8403   13.1201 O.3     1  UNL1        0.0000
   2785 H          14.9740   -6.2360   21.6072 H       1  UNL1        0.0000
   2786 H          11.0523  -12.0151   19.9596 H       1  UNL1        0.0000
   2787 H          15.7322    2.6788   18.8320 H       1  UNL1        0.0000
   2788 H          16.0822   -4.4961   20.1765 H       1  UNL1        0.0000
   2789 H          11.1384   -4.4537   20.7941 H       1  UNL1        0.0000
   2790 H           7.5544   -9.5137   19.8580 H       1  UNL1        0.0000
   2791 H          12.5108   -6.2207   21.8629 H       1  UNL1        0.0000
   2792 H          12.2525   -2.6942   19.3979 H       1  UNL1        0.0000
   2793 H          16.8359    0.5028   18.3917 H       1  UNL1        0.0000
   2794 H           3.2425    0.7361   18.8341 H       1  UNL1        0.0000
   2795 C          14.2292   -3.5023   19.6989 C.ar    1  UNL1        0.0000
   2796 C          12.9945   -5.4556   21.2578 C.ar    1  UNL1        0.0000
   2797 C          17.4071    1.3163   18.8395 C.ar    1  UNL1        0.0000
   2798 C           9.3756  -10.6602   19.9748 C.2     1  UNL1        0.0000
   2799 C          12.8332   -3.4768   19.8807 C.ar    1  UNL1        0.0000
   2800 C          14.3850   -5.4703   21.1057 C.ar    1  UNL1        0.0000
   2801 C          16.7810    2.5428   19.0905 C.ar    1  UNL1        0.0000
   2802 C          10.0044  -11.8879   19.6970 C.3     1  UNL1        0.0000
   2803 C          18.7602    1.1300   19.1438 C.ar    1  UNL1        0.0000
   2804 C           8.0222  -10.4713   19.6398 C.3     1  UNL1        0.0000
   2805 C          15.0041   -4.4982   20.3197 C.ar    1  UNL1        0.0000
   2806 C          12.2180   -4.4594   20.6538 C.ar    1  UNL1        0.0000
   2807 O          16.1063   -2.6477   18.4986 O.3     1  UNL1        0.0000
   2808 O           9.4850   -8.5264   21.0317 O.2     1  UNL1        0.0000
   2809 O          11.3093   -9.8461   21.1017 O.2     1  UNL1        0.0000
   2810 O          14.1391   -1.5679   18.3209 O.3     1  UNL1        0.0000
   2811 N          17.1760    2.7777   38.3226 N.pl3  49  UNL49       0.0000
   2812 N          17.6391    2.0456   40.3265 N.pl3  49  UNL49       0.0000
   2813 C          17.7962    1.5476   38.1728 C.2    49  UNL49       0.0000
   2814 C          18.0868    1.0895   39.4304 C.2    49  UNL49       0.0000
   2815 C          18.9538    3.0967   42.1688 C.3    49  UNL49       0.0000
   2816 C          16.8013    3.6923   37.2370 C.3    49  UNL49       0.0000
   2817 C          17.0956    3.0603   39.6322 C.3    49  UNL49       0.0000
   2818 C          17.8927    2.0690   41.7836 C.3    49  UNL49       0.0000
   2819 H          18.0528    1.1420   37.2040 H      49  UNL49       0.0000
   2820 H          18.5873    0.1876   39.7570 H      49  UNL49       0.0000
   2821 H          19.9151    2.8728   41.6937 H      49  UNL49       0.0000
   2822 H          17.6804    3.8381   36.6002 H      49  UNL49       0.0000
   2823 H          18.6639    4.1092   41.8618 H      49  UNL49       0.0000
   2824 H          15.9810    3.2490   36.6672 H      49  UNL49       0.0000
   2825 H          19.0778    3.0841   43.2590 H      49  UNL49       0.0000
   2826 H          18.2120    1.0548   42.0563 H      49  UNL49       0.0000
   2827 H          16.5074    4.6460   37.6820 H      49  UNL49       0.0000
   2828 H          16.7238    3.9867   40.0458 H      49  UNL49       0.0000
   2829 H          16.9310    2.2601   42.2727 H      49  UNL49       0.0000
   2830 N          19.9855    5.8105   37.8760 N.3    49  UNL49       0.0000
   2831 C          19.8717    7.1916   40.2876 C.3    49  UNL49       0.0000
   2832 C          22.1756    4.3048   38.0639 C.3    49  UNL49       0.0000
   2833 O          18.6394    7.8808   38.0489 O.2    49  UNL49       0.0000
   2834 O          17.8306    5.8678   39.3153 O.2    49  UNL49       0.0000
   2835 O          20.0109    3.5234   36.8077 O.2    49  UNL49       0.0000
   2836 O          19.9685    3.6296   39.3163 O.2    49  UNL49       0.0000
   2837 F          20.9026    8.0150   39.9807 F      49  UNL49       0.0000
   2838 F          22.6330    5.0922   39.0645 F      49  UNL49       0.0000
   2839 F          20.3783    6.1275   40.9666 F      49  UNL49       0.0000
   2840 F          19.0112    7.8556   41.1136 F      49  UNL49       0.0000
   2841 F          22.6635    4.7651   36.8758 F      49  UNL49       0.0000
   2842 F          22.6630    3.0501   38.2509 F      49  UNL49       0.0000
   2843 S          18.9380    6.6448   38.7541 S.O2   49  UNL49       0.0000
   2844 S          20.3141    4.2483   38.0401 S.O2   49  UNL49       0.0000
   2845 TI          3.8747  -12.4604   37.5252 Ti      1  UNL1        0.0000
   2846 TI         14.7052   -9.5792   28.1604 Ti      1  UNL1        0.0000
   2847 TI          7.9714  -16.3966   35.7052 Ti      1  UNL1        0.0000
   2848 TI          9.4826   -7.2344   29.9322 Ti      1  UNL1        0.0000
   2849 TI          8.4840   -5.5561   28.0278 Ti      1  UNL1        0.0000
   2850 TI          9.8596  -16.6509   37.6586 Ti      1  UNL1        0.0000
   2851 TI          4.8239  -14.1963   35.6337 Ti      1  UNL1        0.0000
   2852 TI         12.7174   -9.2766   30.0078 Ti      1  UNL1        0.0000
   2853 H           4.3766   -8.5633   37.3057 H       1  UNL1        0.0000
   2854 H          15.5140  -13.4852   28.4811 H       1  UNL1        0.0000
   2855 H          -0.0852  -13.2170   37.1427 H       1  UNL1        0.0000
   2856 H          18.0873   -7.5749   28.3610 H       1  UNL1        0.0000
   2857 H          10.8352  -20.6855   37.2726 H       1  UNL1        0.0000
   2858 H           4.4255   -6.1460   28.3498 H       1  UNL1        0.0000
   2859 H           8.9785   -7.1929   26.1547 H       1  UNL1        0.0000
   2860 H          12.8297   -9.8219   26.4604 H       1  UNL1        0.0000
   2861 H          10.3695  -17.3180   32.1475 H       1  UNL1        0.0000
   2862 H           7.7591   -5.3974   33.5511 H       1  UNL1        0.0000
   2863 H           0.7513  -10.8076   35.2778 H       1  UNL1        0.0000
   2864 H          17.4599  -11.6635   30.4664 H       1  UNL1        0.0000
   2865 H           3.0524  -12.2551   31.9440 H       1  UNL1        0.0000
   2866 H           5.3839   -3.7283   30.3810 H       1  UNL1        0.0000
   2867 H           8.8763   -2.4533   28.8833 H       1  UNL1        0.0000
   2868 H          15.3561  -15.5041   29.6835 H      57  UNL57       0.0000
   2869 H          11.5752   -7.5543   28.5935 H       1  UNL1        0.0000
   2870 H           6.8907  -14.5482   36.9988 H       1  UNL1        0.0000
   2871 H          14.0943  -14.7161   36.0482 H       1  UNL1        0.0000
   2872 H          12.6132  -15.1851   36.7956 H       1  UNL1        0.0000
   2873 H          14.6685  -10.2824   34.9493 H       1  UNL1        0.0000
   2874 H          14.0987   -9.9238   33.3308 H       1  UNL1        0.0000
   2875 H          13.6055  -19.6709   35.8582 H       1  UNL1        0.0000
   2876 H          12.3264  -18.5703   36.3156 H       1  UNL1        0.0000
   2877 C          15.2832  -10.3204   31.0239 C.3     1  UNL1        0.0000
   2878 C           2.9142  -12.1990   34.6782 C.3     1  UNL1        0.0000
   2879 C          10.5519  -17.4073   34.7805 C.3     1  UNL1        0.0000
   2880 C           7.5465   -5.2639   30.8915 C.3     1  UNL1        0.0000
   2881 C          16.1792  -10.9247   32.0191 C.ar    1  UNL1        0.0000
   2882 C           1.9823  -11.5740   33.7011 C.ar    1  UNL1        0.0000
   2883 C          11.4921  -18.0216   33.8333 C.2     1  UNL1        0.0000
   2884 C           6.6566   -4.6171   31.8913 C.ar    1  UNL1        0.0000
   2885 C          15.9305  -10.8498   33.4255 C.ar    1  UNL1        0.0000
   2886 C           2.1986  -11.6940   32.3131 C.ar    1  UNL1        0.0000
   2887 C          12.6215  -18.7819   34.2864 C.2     1  UNL1        0.0000
   2888 C           5.5619   -3.8442   31.4464 C.ar    1  UNL1        0.0000
   2889 C           6.9111   -4.7879   33.2462 C.ar    1  UNL1        0.0000
   2890 C          11.2444  -17.8895   32.4494 C.3     1  UNL1        0.0000
   2891 C          17.3129  -11.6237   31.5434 C.ar    1  UNL1        0.0000
   2892 C           0.8821  -10.8816   34.1998 C.ar    1  UNL1        0.0000
   2893 C          15.4950  -13.4061   26.3370 C.2     1  UNL1        0.0000
   2894 C           9.0253   -1.6146   26.3620 C.ar    1  UNL1        0.0000
   2895 C          17.9794   -7.6430   26.2110 C.ar    1  UNL1        0.0000
   2896 C           4.6211   -6.1006   26.1916 C.ar    1  UNL1        0.0000
   2897 C          10.2293   -9.5776   31.8968 C.3     1  UNL1        0.0000
   2898 C           5.4732  -16.6720   33.8149 C.2     1  UNL1        0.0000
   2899 C          15.3591  -11.9513   26.3138 C.2     1  UNL1        0.0000
   2900 C           8.9325   -3.0481   26.3245 C.3     1  UNL1        0.0000
   2901 C          16.6816   -8.2599   26.2578 C.3     1  UNL1        0.0000
   2902 C           6.0234   -5.6863   26.2160 C.3     1  UNL1        0.0000
   2903 C          15.5343  -14.0753   27.5666 C.3     1  UNL1        0.0000
   2904 C           4.3875   -7.9749   38.2196 C.ar    1  UNL1        0.0000
   2905 C          18.6347   -7.3682   27.4449 C.ar    1  UNL1        0.0000
   2906 C          -0.6467  -13.3964   38.0581 C.ar    1  UNL1        0.0000
   2907 C          14.0391  -14.4407   38.0726 C.ar    1  UNL1        0.0000
   2908 C           3.9239   -6.3310   27.4040 C.ar    1  UNL1        0.0000
   2909 C          10.8768  -21.2126   38.2217 C.3     1  UNL1        0.0000
   2910 C           9.0390   -0.8634   27.5913 C.ar    1  UNL1        0.0000
   2911 N           9.0941   -1.4622   28.8294 N.pl3   1  UNL1        0.0000
   2912 N          13.4600  -14.6236   36.8336 N.pl3   1  UNL1        0.0000
   2913 N          14.8496  -10.2036   33.9568 N.pl3   1  UNL1        0.0000
   2914 N          12.9526  -18.9402   35.6038 N.pl3   1  UNL1        0.0000
   2915 O          14.1069   -9.9153   31.3897 O.3     1  UNL1        0.0000
   2916 O           3.6832  -13.1499   34.2799 O.3     1  UNL1        0.0000
   2917 O          10.9334  -17.2828   36.0016 O.3     1  UNL1        0.0000
   2918 O           7.4806   -4.8343   29.6919 O.3     1  UNL1        0.0000
   2919 O           8.3169   -6.2211   31.2780 O.3     1  UNL1        0.0000
   2920 O           9.3815  -17.0388   34.3750 O.3     1  UNL1        0.0000
   2921 O          15.6951  -10.2396   29.8122 O.3     1  UNL1        0.0000
   2922 O           2.8721  -11.7627   35.8779 O.3     1  UNL1        0.0000
   2923 O          13.0226  -10.4945   28.8131 O.3     1  UNL1        0.0000
   2924 O           5.3764  -12.6359   36.3782 O.3     1  UNL1        0.0000
   2925 O          13.9614   -8.2072   29.2631 O.3     1  UNL1        0.0000
   2926 O           3.6242  -14.3606   36.8709 O.3     1  UNL1        0.0000
   2927 O           8.2307  -17.5685   36.9656 O.3     1  UNL1        0.0000
   2928 O           9.9991   -5.6731   29.1937 O.3     1  UNL1        0.0000
   2929 O           9.1846  -15.3070   36.5014 O.3     1  UNL1        0.0000
   2930 O           8.2929   -7.4302   28.6763 O.3     1  UNL1        0.0000
   2931 O          10.6019  -18.4228   38.2677 O.2     1  UNL1        0.0000
   2932 O           8.8494   -3.7495   27.4197 O.3     1  UNL1        0.0000
   2933 O          11.4041  -15.6346   38.2626 O.3     1  UNL1        0.0000
   2934 O           6.6135   -5.5852   27.3596 O.3     1  UNL1        0.0000
   2935 O          16.1423   -8.5600   27.4058 O.3     1  UNL1        0.0000
   2936 O           1.9879  -12.5204   38.1936 O.3     1  UNL1        0.0000
   2937 O          15.3467  -11.3144   27.4352 O.2     1  UNL1        0.0000
   2938 O           4.2561  -10.7381   38.2749 O.3     1  UNL1        0.0000
   2939 O          11.2144   -8.1031   29.3142 O.3     1  UNL1        0.0000
   2940 O           6.5124  -15.1069   36.2952 O.3     1  UNL1        0.0000
   2941 O          13.6685   -9.3282   26.3814 O.3     1  UNL1        0.0000
   2942 O           9.1008   -6.2261   26.2147 O.3     1  UNL1        0.0000
   2943 H          10.3393  -13.3024   34.7018 H       1  UNL1        0.0000
   2944 H           6.4177  -19.0816   33.0542 H       1  UNL1        0.0000
   2945 H          11.0976   -4.3876   31.9266 H       1  UNL1        0.0000
   2946 H          11.4475  -11.5626   33.2711 H       1  UNL1        0.0000
   2947 H           6.5037  -11.5202   33.8887 H       1  UNL1        0.0000
   2948 H           2.9198  -16.5802   32.9526 H       1  UNL1        0.0000
   2949 H           7.8762  -13.2871   34.9575 H       1  UNL1        0.0000
   2950 H           7.6179   -9.7606   32.4926 H       1  UNL1        0.0000
   2951 H          12.2013   -6.5636   31.4863 H       1  UNL1        0.0000
   2952 H          -1.3922   -6.3303   31.9287 H       1  UNL1        0.0000
   2953 C           9.5946  -10.5687   32.7935 C.ar    1  UNL1        0.0000
   2954 C           8.3599  -12.5220   34.3524 C.ar    1  UNL1        0.0000
   2955 C          12.7724   -5.7501   31.9341 C.ar    1  UNL1        0.0000
   2956 C           4.7410  -17.7267   33.0694 C.2     1  UNL1        0.0000
   2957 C           8.1985  -10.5432   32.9753 C.ar    1  UNL1        0.0000
   2958 C           9.7503  -12.5367   34.2003 C.ar    1  UNL1        0.0000
   2959 C          12.1463   -4.5236   32.1851 C.ar    1  UNL1        0.0000
   2960 C           5.3697  -18.9543   32.7916 C.3     1  UNL1        0.0000
   2961 C          14.1256   -5.9364   32.2384 C.ar    1  UNL1        0.0000
   2962 C           3.3875  -17.5377   32.7344 C.3     1  UNL1        0.0000
   2963 C          10.3694  -11.5647   33.4143 C.ar    1  UNL1        0.0000
   2964 C           7.5833  -11.5259   33.7484 C.ar    1  UNL1        0.0000
   2965 O          11.4717   -9.7142   31.5932 O.3     1  UNL1        0.0000
   2966 O           4.8503  -15.5929   34.1263 O.2     1  UNL1        0.0000
   2967 O           6.6746  -16.9125   34.1964 O.2     1  UNL1        0.0000
   2968 O           9.5044   -8.6343   31.4155 O.3     1  UNL1        0.0000
   2969 N          12.5414   -4.2887   51.4172 N.pl3  49  UNL49       0.0000
   2970 N          13.0044   -5.0209   53.4211 N.pl3  49  UNL49       0.0000
   2971 C          13.1616   -5.5188   51.2674 C.2    49  UNL49       0.0000
   2972 C          13.4521   -5.9770   52.5251 C.2    49  UNL49       0.0000
   2973 C          14.3191   -3.9697   55.2634 C.3    49  UNL49       0.0000
   2974 C          12.1666   -3.3741   50.3316 C.3    49  UNL49       0.0000
   2975 C          12.4609   -4.0062   52.7268 C.3    49  UNL49       0.0000
   2976 C          13.2581   -4.9975   54.8782 C.3    49  UNL49       0.0000
   2977 H          13.4182   -5.9245   50.2986 H      49  UNL49       0.0000
   2978 H          13.9527   -6.8789   52.8516 H      49  UNL49       0.0000
   2979 H          15.2804   -4.1936   54.7883 H      49  UNL49       0.0000
   2980 H          13.0457   -3.2283   49.6948 H      49  UNL49       0.0000
   2981 H          14.0293   -2.9573   54.9564 H      49  UNL49       0.0000
   2982 H          11.3464   -3.8174   49.7618 H      49  UNL49       0.0000
   2983 H          14.4432   -3.9823   56.3536 H      49  UNL49       0.0000
   2984 H          13.5774   -6.0116   55.1509 H      49  UNL49       0.0000
   2985 H          11.8728   -2.4204   50.7766 H      49  UNL49       0.0000
   2986 H          12.0891   -3.0797   53.1404 H      49  UNL49       0.0000
   2987 H          12.2964   -4.8064   55.3673 H      49  UNL49       0.0000
   2988 N          15.3508   -1.2560   50.9706 N.3    49  UNL49       0.0000
   2989 C          15.2371    0.1251   53.3822 C.3    49  UNL49       0.0000
   2990 C          17.5410   -2.7617   51.1585 C.3    49  UNL49       0.0000
   2991 O          14.0047    0.8144   51.1435 O.2    49  UNL49       0.0000
   2992 O          13.1960   -1.1986   52.4100 O.2    49  UNL49       0.0000
   2993 O          15.3763   -3.5431   49.9024 O.2    49  UNL49       0.0000
   2994 O          15.3339   -3.4368   52.4109 O.2    49  UNL49       0.0000
   2995 F          16.2679    0.9485   53.0753 F      49  UNL49       0.0000
   2996 F          17.9983   -1.9743   52.1591 F      49  UNL49       0.0000
   2997 F          15.7436   -0.9389   54.0612 F      49  UNL49       0.0000
   2998 F          14.3766    0.7891   54.2082 F      49  UNL49       0.0000
   2999 F          18.0289   -2.3013   49.9704 F      49  UNL49       0.0000
   3000 F          18.0283   -4.0164   51.3455 F      49  UNL49       0.0000
   3001 S          14.3034   -0.4217   51.8487 S.O2   49  UNL49       0.0000
   3002 S          15.6794   -2.8181   51.1347 S.O2   49  UNL49       0.0000
   3003 TI         -0.7599  -19.5268   50.6198 Ti      1  UNL1        0.0000
   3004 TI         10.0705  -16.6456   41.2550 Ti      1  UNL1        0.0000
   3005 TI          3.3367  -23.4630   48.7998 Ti      1  UNL1        0.0000
   3006 TI          4.8479  -14.3009   43.0268 Ti      1  UNL1        0.0000
   3007 TI          3.8494  -12.6226   41.1224 Ti      1  UNL1        0.0000
   3008 TI          5.2249  -23.7174   50.7532 Ti      1  UNL1        0.0000
   3009 TI          0.1893  -21.2627   48.7283 Ti      1  UNL1        0.0000
   3010 TI          8.0827  -16.3430   43.1024 Ti      1  UNL1        0.0000
   3011 H          -0.2581  -15.6297   50.4003 H      49  UNL49       0.0000
   3012 H          10.8793  -20.5517   41.5757 H       1  UNL1        0.0000
   3013 H          -4.7198  -20.2834   50.2373 H       3  UNL3        0.0000
   3014 H          13.4527  -14.6413   41.4556 H       1  UNL1        0.0000
   3015 H           6.2006  -27.7519   50.3673 H      49  UNL49       0.0000
   3016 H          -0.2092  -13.2125   41.4444 H       1  UNL1        0.0000
   3017 H           4.3438  -14.2594   39.2493 H       1  UNL1        0.0000
   3018 H           8.1950  -16.8883   39.5550 H       1  UNL1        0.0000
   3019 H           5.7349  -24.3845   45.2421 H       1  UNL1        0.0000
   3020 H           3.1245  -12.4639   46.6457 H       1  UNL1        0.0000
   3021 H          -3.8834  -17.8741   48.3724 H       1  UNL1        0.0000
   3022 H          12.8253  -18.7299   43.5610 H       1  UNL1        0.0000
   3023 H          -1.5823  -19.3215   45.0386 H       1  UNL1        0.0000
   3024 H           0.7493  -10.7947   43.4756 H       1  UNL1        0.0000
   3025 H           4.2416   -9.5197   41.9779 H       1  UNL1        0.0000
   3026 H          10.7215  -22.5705   42.7782 H      58  UNL58       0.0000
   3027 H           6.9406  -14.6207   41.6882 H       1  UNL1        0.0000
   3028 H           2.2560  -21.6146   50.0934 H       1  UNL1        0.0000
   3029 H           9.4597  -21.7825   49.1428 H      49  UNL49       0.0000
   3030 H           7.9786  -22.2516   49.8902 H      49  UNL49       0.0000
   3031 H          10.0338  -17.3489   48.0439 H       1  UNL1        0.0000
   3032 H           9.4641  -16.9903   46.4254 H       1  UNL1        0.0000
   3033 H           8.9709  -26.7373   48.9528 H       1  UNL1        0.0000
   3034 H           7.6917  -25.6367   49.4102 H       1  UNL1        0.0000
   3035 C          10.6486  -17.3868   44.1185 C.3     1  UNL1        0.0000
   3036 C          -1.7205  -19.2654   47.7728 C.3     1  UNL1        0.0000
   3037 C           5.9173  -24.4737   47.8751 C.3     1  UNL1        0.0000
   3038 C           2.9118  -12.3304   43.9861 C.3     1  UNL1        0.0000
   3039 C          11.5446  -17.9911   45.1137 C.ar    1  UNL1        0.0000
   3040 C          -2.6524  -18.6404   46.7957 C.ar    1  UNL1        0.0000
   3041 C           6.8574  -25.0881   46.9279 C.2     1  UNL1        0.0000
   3042 C           2.0220  -11.6836   44.9859 C.ar    1  UNL1        0.0000
   3043 C          11.2958  -17.9162   46.5201 C.ar    1  UNL1        0.0000
   3044 C          -2.4360  -18.7604   45.4077 C.ar    1  UNL1        0.0000
   3045 C           7.9869  -25.8484   47.3810 C.2     1  UNL1        0.0000
   3046 C           0.9273  -10.9106   44.5410 C.ar    1  UNL1        0.0000
   3047 C           2.2765  -11.8543   46.3408 C.ar    1  UNL1        0.0000
   3048 C           6.6097  -24.9559   45.5440 C.3     1  UNL1        0.0000
   3049 C          12.6783  -18.6901   44.6380 C.ar    1  UNL1        0.0000
   3050 C          -3.7526  -17.9480   47.2944 C.ar    1  UNL1        0.0000
   3051 C          10.8603  -20.4726   39.4316 C.2     1  UNL1        0.0000
   3052 C           4.3906   -8.6810   39.4566 C.ar    1  UNL1        0.0000
   3053 C          13.3448  -14.7095   39.3056 C.ar    1  UNL1        0.0000
   3054 C          -0.0136  -13.1670   39.2862 C.ar    1  UNL1        0.0000
   3055 C           5.5947  -16.6441   44.9914 C.3     1  UNL1        0.0000
   3056 C           0.8386  -23.7384   46.9095 C.2     1  UNL1        0.0000
   3057 C          10.7245  -19.0177   39.4084 C.2     1  UNL1        0.0000
   3058 C           4.2979  -10.1145   39.4191 C.3     1  UNL1        0.0000
   3059 C          12.0469  -15.3263   39.3524 C.3     1  UNL1        0.0000
   3060 C           1.3888  -12.7527   39.3106 C.3     1  UNL1        0.0000
   3061 C          10.8997  -21.1417   40.6613 C.3     1  UNL1        0.0000
   3062 C          -0.2471  -15.0413   51.3142 C.2    49  UNL49       0.0000
   3063 C          14.0001  -14.4347   40.5395 C.ar    1  UNL1        0.0000
   3064 C          -5.2813  -20.4628   51.1527 C.2     3  UNL3        0.0000
   3065 C           9.4044  -21.5072   51.1672 C.2    49  UNL49       0.0000
   3066 C          -0.7107  -13.3974   40.4987 C.ar    1  UNL1        0.0000
   3067 C           6.2422  -28.2791   51.3163 C.3    59  UNL59       0.0000
   3068 C           4.4044   -7.9298   40.6859 C.ar    1  UNL1        0.0000
   3069 N           4.4594   -8.5286   41.9240 N.pl3   1  UNL1        0.0000
   3070 N           8.8254  -21.6900   49.9282 N.pl3  49  UNL49       0.0000
   3071 N          10.2149  -17.2700   47.0514 N.pl3   1  UNL1        0.0000
   3072 N           8.3179  -26.0066   48.6984 N.pl3   1  UNL1        0.0000
   3073 O           9.4722  -16.9817   44.4843 O.3     1  UNL1        0.0000
   3074 O          -0.9515  -20.2163   47.3745 O.3     1  UNL1        0.0000
   3075 O           6.2987  -24.3492   49.0962 O.3     1  UNL1        0.0000
   3076 O           2.8459  -11.9007   42.7865 O.3     1  UNL1        0.0000
   3077 O           3.6823  -13.2876   44.3726 O.3     1  UNL1        0.0000
   3078 O           4.7468  -24.1053   47.4696 O.3     1  UNL1        0.0000
   3079 O          11.0604  -17.3061   42.9068 O.3     1  UNL1        0.0000
   3080 O          -1.7625  -18.8292   48.9725 O.3     1  UNL1        0.0000
   3081 O           8.3879  -17.5610   41.9078 O.3     1  UNL1        0.0000
   3082 O           0.7417  -19.7023   49.4728 O.3     1  UNL1        0.0000
   3083 O           9.3267  -15.2737   42.3577 O.3     1  UNL1        0.0000
   3084 O          -1.0105  -21.4270   49.9655 O.3     1  UNL1        0.0000
   3085 O           3.5961  -24.6350   50.0602 O.3     1  UNL1        0.0000
   3086 O           5.3645  -12.7396   42.2883 O.3     1  UNL1        0.0000
   3087 O           4.5500  -22.3735   49.5961 O.3     1  UNL1        0.0000
   3088 O           3.6583  -14.4967   41.7709 O.3     1  UNL1        0.0000
   3089 O           5.9673  -25.4892   51.3623 O.3     1  UNL1        0.0000
   3090 O           4.2148  -10.8159   40.5143 O.3     1  UNL1        0.0000
   3091 O           6.7694  -22.7010   51.3572 O.3     1  UNL1        0.0000
   3092 O           1.9788  -12.6517   40.4542 O.3     1  UNL1        0.0000
   3093 O          11.5076  -15.6265   40.5004 O.3     1  UNL1        0.0000
   3094 O          -2.6467  -19.5869   51.2882 O.3     1  UNL1        0.0000
   3095 O          10.7120  -18.3808   40.5298 O.2     1  UNL1        0.0000
   3096 O          -0.3785  -17.8045   51.3695 O.3     1  UNL1        0.0000
   3097 O           6.5797  -15.1695   42.4088 O.3     1  UNL1        0.0000
   3098 O           1.8778  -22.1733   49.3898 O.3     1  UNL1        0.0000
   3099 O           9.0338  -16.3946   39.4760 O.3     1  UNL1        0.0000
   3100 O           4.4662  -13.2926   39.3093 O.3     1  UNL1        0.0000
   3101 H           5.7047  -20.3688   47.7964 H       1  UNL1        0.0000
   3102 H           1.7831  -26.1480   46.1488 H       1  UNL1        0.0000
   3103 H           6.4629  -11.4541   45.0212 H       1  UNL1        0.0000
   3104 H           6.8129  -18.6290   46.3657 H       1  UNL1        0.0000
   3105 H           1.8691  -18.5866   46.9833 H       1  UNL1        0.0000
   3106 H          -1.7149  -23.6466   46.0472 H       1  UNL1        0.0000
   3107 H           3.2415  -20.3535   48.0521 H       1  UNL1        0.0000
   3108 H           2.9832  -16.8271   45.5872 H       1  UNL1        0.0000
   3109 H           7.5667  -13.6301   44.5809 H       1  UNL1        0.0000
   3110 H          -6.0268  -13.3967   45.0233 H       1  UNL1        0.0000
   3111 C           4.9600  -17.6352   45.8881 C.ar    1  UNL1        0.0000
   3112 C           3.7252  -19.5884   47.4470 C.ar    1  UNL1        0.0000
   3113 C           8.1378  -12.8166   45.0287 C.ar    1  UNL1        0.0000
   3114 C           0.1063  -24.7931   46.1641 C.2     1  UNL1        0.0000
   3115 C           3.5639  -17.6096   46.0699 C.ar    1  UNL1        0.0000
   3116 C           5.1157  -19.6031   47.2949 C.ar    1  UNL1        0.0000
   3117 C           7.5117  -11.5901   45.2797 C.ar    1  UNL1        0.0000
   3118 C           0.7351  -26.0207   45.8863 C.3     1  UNL1        0.0000
   3119 C           9.4909  -13.0028   45.3330 C.ar    1  UNL1        0.0000
   3120 C          -1.2471  -24.6041   45.8290 C.3     1  UNL1        0.0000
   3121 C           5.7348  -18.6311   46.5089 C.ar    1  UNL1        0.0000
   3122 C           2.9487  -18.5923   46.8430 C.ar    1  UNL1        0.0000
   3123 O           6.8370  -16.7806   44.6878 O.3     1  UNL1        0.0000
   3124 O           0.2157  -22.6593   47.2210 O.2     1  UNL1        0.0000
   3125 O           2.0400  -23.9790   47.2910 O.2     1  UNL1        0.0000
   3126 O           4.8698  -15.7008   44.5101 O.3     1  UNL1        0.0000
   3127 N           7.9067  -11.3551   64.5118 N.pl3  49  UNL49       0.0000
   3128 N           8.3698  -12.0873   66.5157 N.pl3  49  UNL49       0.0000
   3129 C           8.5269  -12.5853   64.3620 C.2    49  UNL49       0.0000
   3130 C           8.8175  -13.0434   65.6197 C.2    49  UNL49       0.0000
   3131 C           9.6845  -11.0362   68.3580 C.3    49  UNL49       0.0000
   3132 C           7.5320  -10.4405   63.4262 C.3    49  UNL49       0.0000
   3133 C           7.8263  -11.0726   65.8214 C.3    49  UNL49       0.0000
   3134 C           8.6234  -12.0639   67.9728 C.3    49  UNL49       0.0000
   3135 H           8.7835  -12.9909   63.3932 H      49  UNL49       0.0000
   3136 H           9.3180  -13.9453   65.9462 H      49  UNL49       0.0000
   3137 H          10.6458  -11.2600   67.8829 H      49  UNL49       0.0000
   3138 H           8.4111  -10.2948   62.7894 H      49  UNL49       0.0000
   3139 H           9.3946  -10.0237   68.0510 H      49  UNL49       0.0000
   3140 H           6.7117  -10.8839   62.8564 H      49  UNL49       0.0000
   3141 H           9.8085  -11.0487   69.4483 H      49  UNL49       0.0000
   3142 H           8.9427  -13.0780   68.2455 H      49  UNL49       0.0000
   3143 H           7.2381   -9.4869   63.8712 H      49  UNL49       0.0000
   3144 H           7.4545  -10.1462   66.2350 H      49  UNL49       0.0000
   3145 H           7.6617  -11.8728   68.4619 H      49  UNL49       0.0000
   3146 N          10.7162   -8.3224   64.0652 N.3    49  UNL49       0.0000
   3147 C          10.6024   -6.9413   66.4768 C.3    49  UNL49       0.0000
   3148 C          12.9063   -9.8281   64.2531 C.3    49  UNL49       0.0000
   3149 O           9.3701   -6.2520   64.2381 O.2    49  UNL49       0.0000
   3150 O           8.5613   -8.2650   65.5046 O.2    49  UNL49       0.0000
   3151 O          10.7416  -10.6095   62.9970 O.2    49  UNL49       0.0000
   3152 O          10.6992  -10.5033   65.5055 O.2    49  UNL49       0.0000
   3153 F          11.6333   -6.1179   66.1699 F      49  UNL49       0.0000
   3154 F          13.3637   -9.0407   65.2537 F      49  UNL49       0.0000
   3155 F          11.1090   -8.0053   67.1558 F      49  UNL49       0.0000
   3156 F           9.7419   -6.2773   67.3029 F      49  UNL49       0.0000
   3157 F          13.3942   -9.3678   63.0650 F      49  UNL49       0.0000
   3158 F          13.3937  -11.0828   64.4402 F      49  UNL49       0.0000
   3159 S           9.6687   -7.4881   64.9433 S.O2   49  UNL49       0.0000
   3160 S          11.0448   -9.8846   64.2293 S.O2   49  UNL49       0.0000
   3161 TI          6.6270   16.2850   11.2794 Ti      1  UNL1        0.0000
   3162 TI         17.4574   19.1662    1.9146 Ti      1  UNL1        0.0000
   3163 TI         10.7237   12.3488    9.4595 Ti      1  UNL1        0.0000
   3164 TI         12.2348   21.5109    3.6864 Ti      1  UNL1        0.0000
   3165 TI         11.2363   23.1893    1.7820 Ti      1  UNL1        0.0000
   3166 TI         12.6119   12.0945   11.4128 Ti      1  UNL1        0.0000
   3167 TI          7.5762   14.5491    9.3880 Ti      1  UNL1        0.0000
   3168 TI         15.4696   19.4688    3.7621 Ti      1  UNL1        0.0000
   3169 H           7.1288   20.1821   11.0600 H       1  UNL1        0.0000
   3170 H          18.2662   15.2602    2.2353 H       1  UNL1        0.0000
   3171 H           2.6671   15.5284   10.8970 H       1  UNL1        0.0000
   3172 H          20.8396   21.1705    2.1153 H       1  UNL1        0.0000
   3173 H          13.5875    8.0599   11.0269 H       1  UNL1        0.0000
   3174 H           7.1778   22.5994    2.1041 H       1  UNL1        0.0000
   3175 H          11.7307   21.5524   -0.0910 H       1  UNL1        0.0000
   3176 H          15.5819   18.9235    0.2147 H       1  UNL1        0.0000
   3177 H          13.1218   11.4274    5.9017 H       1  UNL1        0.0000
   3178 H          10.5114   23.3480    7.3054 H       1  UNL1        0.0000
   3179 H           3.5036   17.9377    9.0321 H       1  UNL1        0.0000
   3180 H          20.2122   17.0819    4.2206 H       1  UNL1        0.0000
   3181 H           5.8047   16.4903    5.6982 H       1  UNL1        0.0000
   3182 H           8.1362   25.0171    4.1353 H       1  UNL1        0.0000
   3183 H          11.6285   26.2921    2.6375 H       1  UNL1        0.0000
   3184 H          18.1084   13.2413    3.4378 H       1  UNL1        0.0000
   3185 H          14.3275   21.1911    2.3478 H       1  UNL1        0.0000
   3186 H           9.6430   14.1972   10.7531 H       1  UNL1        0.0000
   3187 H          16.8466   14.0293    9.8025 H       1  UNL1        0.0000
   3188 H          15.3655   13.5603   10.5498 H       1  UNL1        0.0000
   3189 H          17.4207   18.4630    8.7036 H       1  UNL1        0.0000
   3190 H          16.8510   18.8215    7.0851 H       1  UNL1        0.0000
   3191 H          16.3578    9.0745    9.6125 H       1  UNL1        0.0000
   3192 H          15.0786   10.1751   10.0699 H       1  UNL1        0.0000
   3193 C          18.0355   18.4250    4.7782 C.3     1  UNL1        0.0000
   3194 C           5.6664   16.5464    8.4324 C.3     1  UNL1        0.0000
   3195 C          13.3042   11.3381    8.5347 C.3     1  UNL1        0.0000
   3196 C          10.2987   23.4815    4.6458 C.3     1  UNL1        0.0000
   3197 C          18.9315   17.8207    5.7734 C.ar    1  UNL1        0.0000
   3198 C           4.7345   17.1714    7.4554 C.ar    1  UNL1        0.0000
   3199 C          14.2444   10.7238    7.5876 C.ar    1  UNL1        0.0000
   3200 C           9.4089   24.1283    5.6456 C.ar    1  UNL1        0.0000
   3201 C          18.6827   17.8956    7.1798 C.ar    1  UNL1        0.0000
   3202 C           4.9509   17.0514    6.0673 C.ar    1  UNL1        0.0000
   3203 C          15.3738    9.9635    8.0406 C.ar    1  UNL1        0.0000
   3204 C           8.3142   24.9012    5.2007 C.ar    1  UNL1        0.0000
   3205 C           9.6634   23.9575    7.0005 C.ar    1  UNL1        0.0000
   3206 C          13.9967   10.8559    6.2036 C.ar    1  UNL1        0.0000
   3207 C          20.0652   17.1217    5.2977 C.ar    1  UNL1        0.0000
   3208 C           3.6344   17.8638    7.9541 C.ar    1  UNL1        0.0000
   3209 C          18.2473   15.3392    0.0912 C.2     1  UNL1        0.0000
   3210 C          11.7775   27.1308    0.1162 C.2     1  UNL1        0.0000
   3211 C          20.7317   21.1024   -0.0348 C.2     1  UNL1        0.0000
   3212 C           7.3734   22.6448   -0.0542 C.2     1  UNL1        0.0000
   3213 C          12.9816   19.1678    5.6510 C.3     1  UNL1        0.0000
   3214 C           8.2255   12.0734    7.5692 C.3     1  UNL1        0.0000
   3215 C          18.1114   16.7941    0.0680 C.2     1  UNL1        0.0000
   3216 C          11.6848   25.6973    0.0787 C.2     1  UNL1        0.0000
   3217 C          19.4339   20.4855    0.0121 C.2     1  UNL1        0.0000
   3218 C           8.7757   23.0591   -0.0297 C.2     1  UNL1        0.0000
   3219 C          18.2866   14.6701    1.3209 C.2     1  UNL1        0.0000
   3220 C           7.1398   20.7705   11.9739 C.ar    1  UNL1        0.0000
   3221 C          21.3870   21.3772    1.1992 C.2     1  UNL1        0.0000
   3222 C           2.1056   15.3490   11.8124 C.ar    1  UNL1        0.0000
   3223 C          16.7913   14.3046   11.8268 C.ar    1  UNL1        0.0000
   3224 C           6.6762   22.4144    1.1583 C.2     1  UNL1        0.0000
   3225 C          13.6291    7.5328   11.9760 C.ar    1  UNL1        0.0000
   3226 C          11.7913   27.8820    1.3455 C.2     1  UNL1        0.0000
   3227 N          11.8464   27.2832    2.5837 N.pl3   1  UNL1        0.0000
   3228 N          16.2123   14.1218   10.5879 N.pl3   1  UNL1        0.0000
   3229 N          17.6019   18.5418    7.7111 N.pl3   1  UNL1        0.0000
   3230 N          15.7048    9.8052    9.3580 N.pl3   1  UNL1        0.0000
   3231 O          16.8592   18.8301    5.1440 O.3     1  UNL1        0.0000
   3232 O           6.4354   15.5955    8.0341 O.3     1  UNL1        0.0000
   3233 O          13.6856   11.4626    9.7559 O.3     1  UNL1        0.0000
   3234 O          10.2329   23.9111    3.4462 O.3     1  UNL1        0.0000
   3235 O          11.0692   22.5242    5.0323 O.3     1  UNL1        0.0000
   3236 O          12.1337   11.7065    8.1292 O.3     1  UNL1        0.0000
   3237 O          18.4474   18.5057    3.5664 O.3     1  UNL1        0.0000
   3238 O           5.6244   16.9826    9.6321 O.3     1  UNL1        0.0000
   3239 O          15.7749   18.2509    2.5674 O.3     1  UNL1        0.0000
   3240 O           8.1286   16.1095   10.1325 O.3     1  UNL1        0.0000
   3241 O          16.7136   20.5382    3.0174 O.3     1  UNL1        0.0000
   3242 O           6.3765   14.3848   10.6252 O.3     1  UNL1        0.0000
   3243 O          10.9830   11.1768   10.7199 O.3     1  UNL1        0.0000
   3244 O          12.7514   23.0723    2.9480 O.3     1  UNL1        0.0000
   3245 O          11.9369   13.4383   10.2557 O.3     1  UNL1        0.0000
   3246 O          11.0452   21.3151    2.4305 O.3     1  UNL1        0.0000
   3247 O          13.3542   10.3226   12.0219 O.3     1  UNL1        0.0000
   3248 O          11.6017   24.9959    1.1739 O.2     1  UNL1        0.0000
   3249 O          14.1563   13.1108   12.0168 O.3     1  UNL1        0.0000
   3250 O           9.3657   23.1601    1.1139 O.2     1  UNL1        0.0000
   3251 O          18.8945   20.1853    1.1601 O.2     1  UNL1        0.0000
   3252 O           4.7402   16.2250   11.9479 O.3     1  UNL1        0.0000
   3253 O          18.0990   17.4310    1.1895 O.2     1  UNL1        0.0000
   3254 O           7.0084   18.0073   12.0292 O.3     1  UNL1        0.0000
   3255 O          13.9666   20.6423    3.0685 O.3     1  UNL1        0.0000
   3256 O           9.2647   13.6385   10.0495 O.3     1  UNL1        0.0000
   3257 O          16.4207   19.4172    0.1357 O.3     1  UNL1        0.0000
   3258 O          11.8531   22.5192   -0.0311 O.3     1  UNL1        0.0000
   3259 H          13.0916   15.4430    8.4560 H       1  UNL1        0.0000
   3260 H           9.1700    9.6638    6.8085 H       1  UNL1        0.0000
   3261 H          13.8498   24.3577    5.6809 H       1  UNL1        0.0000
   3262 H          14.1998   17.1828    7.0254 H       1  UNL1        0.0000
   3263 H           9.2560   17.2252    7.6430 H       1  UNL1        0.0000
   3264 H           5.6720   12.1652    6.7068 H       1  UNL1        0.0000
   3265 H          10.6285   15.4583    8.7118 H       1  UNL1        0.0000
   3266 H          10.3701   18.9847    6.2468 H       1  UNL1        0.0000
   3267 H          14.9536   22.1817    5.2406 H       1  UNL1        0.0000
   3268 H           1.3601   22.4151    5.6830 H       1  UNL1        0.0000
   3269 C          12.3469   18.1767    6.5478 C.ar    1  UNL1        0.0000
   3270 C          11.1121   16.2234    8.1066 C.ar    1  UNL1        0.0000
   3271 C          15.5247   22.9953    5.6884 C.ar    1  UNL1        0.0000
   3272 C           7.4932   11.0187    6.8237 C.ar    1  UNL1        0.0000
   3273 C          10.9508   18.2022    6.7296 C.ar    1  UNL1        0.0000
   3274 C          12.5026   16.2087    7.9546 C.ar    1  UNL1        0.0000
   3275 C          14.8986   24.2217    5.9393 C.ar    1  UNL1        0.0000
   3276 C           8.1220    9.7911    6.5459 C.ar    1  UNL1        0.0000
   3277 C          16.8778   22.8090    5.9926 C.ar    1  UNL1        0.0000
   3278 C           6.1398   11.2077    6.4886 C.ar    1  UNL1        0.0000
   3279 C          13.1217   17.1807    7.1685 C.ar    1  UNL1        0.0000
   3280 C          10.3356   17.2195    7.5027 C.ar    1  UNL1        0.0000
   3281 O          14.2239   19.0312    5.3475 O.3     1  UNL1        0.0000
   3282 O           7.6026   13.1525    7.8806 O.3     1  UNL1        0.0000
   3283 O           9.4269   11.8328    7.9506 O.3     1  UNL1        0.0000
   3284 O          12.2567   20.1110    5.1698 O.3     1  UNL1        0.0000
   3285 N          15.2936   24.4567   25.1714 N.pl3  49  UNL49       0.0000
   3286 N          15.7567   23.7245   27.1753 N.pl3  49  UNL49       0.0000
   3287 C          15.9138   23.2266   25.0217 C.2    49  UNL49       0.0000
   3288 C          16.2044   22.7684   26.2793 C.2    49  UNL49       0.0000
   3289 C          17.0714   24.7756   29.0177 C.3    49  UNL49       0.0000
   3290 C          14.9189   25.3713   24.0859 C.3    49  UNL49       0.0000
   3291 C          15.2132   24.7392   26.4811 C.3    49  UNL49       0.0000
   3292 C          16.0103   23.7479   28.6324 C.3    49  UNL49       0.0000
   3293 H          16.1704   22.8209   24.0528 H      49  UNL49       0.0000
   3294 H          16.7049   21.8665   26.6058 H      49  UNL49       0.0000
   3295 H          18.0327   24.5518   28.5426 H      49  UNL49       0.0000
   3296 H          15.7980   25.5170   23.4491 H      49  UNL49       0.0000
   3297 H          16.7815   25.7881   28.7107 H      49  UNL49       0.0000
   3298 H          14.0987   24.9279   23.5160 H      49  UNL49       0.0000
   3299 H          17.1954   24.7631   30.1079 H      49  UNL49       0.0000
   3300 H          16.3297   22.7338   28.9052 H      49  UNL49       0.0000
   3301 H          14.6250   26.3250   24.5308 H      49  UNL49       0.0000
   3302 H          14.8414   25.6656   26.8946 H      49  UNL49       0.0000
   3303 H          15.0486   23.9390   29.1215 H      49  UNL49       0.0000
   3304 N          18.1031   27.4894   24.7248 N.3    49  UNL49       0.0000
   3305 C          17.9894   28.8705   27.1364 C.3    49  UNL49       0.0000
   3306 C          20.2932   25.9837   24.9128 C.3    49  UNL49       0.0000
   3307 O          16.7570   29.5598   24.8978 O.2    49  UNL49       0.0000
   3308 O          15.9482   27.5468   26.1642 O.2    49  UNL49       0.0000
   3309 O          18.1285   25.2023   23.6566 O.2    49  UNL49       0.0000
   3310 O          18.0862   25.3085   26.1652 O.2    49  UNL49       0.0000
   3311 F          19.0202   29.6939   26.8295 F      49  UNL49       0.0000
   3312 F          20.7506   26.7711   25.9134 F      49  UNL49       0.0000
   3313 F          18.4959   27.8065   27.8155 F      49  UNL49       0.0000
   3314 F          17.1288   29.5345   27.9625 F      49  UNL49       0.0000
   3315 F          20.7811   26.4441   23.7246 F      49  UNL49       0.0000
   3316 F          20.7806   24.7290   25.0998 F      49  UNL49       0.0000
   3317 S          17.0556   28.3237   25.6030 S.O2   49  UNL49       0.0000
   3318 S          18.4317   25.9272   24.8890 S.O2   49  UNL49       0.0000
   3319 TI          1.9923    9.2186   24.3741 Ti      1  UNL1        0.0000
   3320 TI         12.8228   12.0998   15.0092 Ti      1  UNL1        0.0000
   3321 TI          6.0890    5.2824   22.5541 Ti      1  UNL1        0.0000
   3322 TI          7.6002   14.4445   16.7810 Ti      1  UNL1        0.0000
   3323 TI          6.6016   16.1228   14.8767 Ti      1  UNL1        0.0000
   3324 TI          7.9772    5.0280   24.5074 Ti      1  UNL1        0.0000
   3325 TI          2.9415    7.4827   22.4826 Ti      1  UNL1        0.0000
   3326 TI         10.8350   12.4023   16.8567 Ti      1  UNL1        0.0000
   3327 H           2.4942   13.1157   24.1546 H       1  UNL1        0.0000
   3328 H          13.6316    8.1937   15.3299 H       1  UNL1        0.0000
   3329 H          -1.9676    8.4619   23.9916 H       1  UNL1        0.0000
   3330 H          16.2049   14.1041   15.2099 H       1  UNL1        0.0000
   3331 H           8.9528    0.9935   24.1215 H       1  UNL1        0.0000
   3332 H           2.5431   15.5329   15.1987 H       1  UNL1        0.0000
   3333 H           7.0961   14.4860   13.0036 H       1  UNL1        0.0000
   3334 H          10.9473   11.8571   13.3093 H       1  UNL1        0.0000
   3335 H           8.4871    4.3609   18.9963 H       1  UNL1        0.0000
   3336 H           5.8768   16.2815   20.4000 H       1  UNL1        0.0000
   3337 H          -1.1311   10.8713   22.1267 H       1  UNL1        0.0000
   3338 H          15.5776   10.0155   17.3152 H       1  UNL1        0.0000
   3339 H           1.1700    9.4239   18.7928 H       1  UNL1        0.0000
   3340 H           3.5016   17.9507   17.2299 H       1  UNL1        0.0000
   3341 H           6.9939   19.2256   15.7321 H       1  UNL1        0.0000
   3342 H          13.4737    6.1749   16.5324 H       1  UNL1        0.0000
   3343 H           9.6928   14.1246   15.4424 H       1  UNL1        0.0000
   3344 H           5.0083    7.1308   23.8477 H       1  UNL1        0.0000
   3345 H          12.2120    6.9629   22.8971 H       1  UNL1        0.0000
   3346 H          10.7308    6.4938   23.6444 H       1  UNL1        0.0000
   3347 H          12.7861   11.3965   21.7982 H       1  UNL1        0.0000
   3348 H          12.2164   11.7551   20.1797 H       1  UNL1        0.0000
   3349 H          11.7231    2.0081   22.7071 H       1  UNL1        0.0000
   3350 H          10.4440    3.1086   23.1645 H       1  UNL1        0.0000
   3351 C          13.4008   11.3585   17.8728 C.3     1  UNL1        0.0000
   3352 C           1.0318    9.4800   21.5270 C.3     1  UNL1        0.0000
   3353 C           8.6695    4.2717   21.6294 C.3     1  UNL1        0.0000
   3354 C           5.6641   16.4150   17.7404 C.3     1  UNL1        0.0000
   3355 C          14.2969   10.7542   18.8680 C.ar    1  UNL1        0.0000
   3356 C           0.0999   10.1050   20.5500 C.ar    1  UNL1        0.0000
   3357 C           9.6097    3.6573   20.6822 C.ar    1  UNL1        0.0000
   3358 C           4.7743   17.0618   18.7402 C.ar    1  UNL1        0.0000
   3359 C          14.0481   10.8291   20.2744 C.ar    1  UNL1        0.0000
   3360 C           0.3163    9.9850   19.1620 C.ar    1  UNL1        0.0000
   3361 C          10.7392    2.8970   21.1352 C.ar    1  UNL1        0.0000
   3362 C           3.6795   17.8348   18.2953 C.ar    1  UNL1        0.0000
   3363 C           5.0288   16.8911   20.0951 C.ar    1  UNL1        0.0000
   3364 C           9.3620    3.7895   19.2982 C.ar    1  UNL1        0.0000
   3365 C          15.4305   10.0552   18.3923 C.ar    1  UNL1        0.0000
   3366 C          -1.0003   10.7974   21.0487 C.ar    1  UNL1        0.0000
   3367 C          13.6126    8.2728   13.1858 C.ar    1  UNL1        0.0000
   3368 C           7.1429   20.0644   13.2108 C.ar    1  UNL1        0.0000
   3369 C          16.0970   14.0359   13.0598 C.ar    1  UNL1        0.0000
   3370 C           2.7387   15.5784   13.0404 C.ar    1  UNL1        0.0000
   3371 C           8.3469   12.1013   18.7456 C.3     1  UNL1        0.0000
   3372 C           3.5908    5.0070   20.6638 C.3     1  UNL1        0.0000
   3373 C          13.4768    9.7277   13.1626 C.3     1  UNL1        0.0000
   3374 C           7.0501   18.6309   13.1734 C.3     1  UNL1        0.0000
   3375 C          14.7992   13.4191   13.1067 C.3     1  UNL1        0.0000
   3376 C           4.1410   15.9927   13.0649 C.3     1  UNL1        0.0000
   3377 C          13.6520    7.6037   14.4155 C.ar    1  UNL1        0.0000
   3378 C           2.5051   13.7041   25.0685 C.ar    1  UNL1        0.0000
   3379 C          16.7523   14.3107   14.2938 C.ar    1  UNL1        0.0000
   3380 C          -2.5291    8.2826   24.9070 C.ar    1  UNL1        0.0000
   3381 C          12.1567    7.2382   24.9215 C.ar    1  UNL1        0.0000
   3382 C           2.0415   15.3479   14.2529 C.ar    1  UNL1        0.0000
   3383 C           8.9945    0.4663   25.0706 C.ar    1  UNL1        0.0000
   3384 C           7.1567   20.8156   14.4401 C.ar    1  UNL1        0.0000
   3385 N           7.2117   20.2167   15.6783 N.pl3   1  UNL1        0.0000
   3386 N          11.5777    7.0554   23.6825 N.pl3   1  UNL1        0.0000
   3387 N          12.9672   11.4754   20.8057 N.pl3   1  UNL1        0.0000
   3388 N          11.0702    2.7388   22.4526 N.pl3   1  UNL1        0.0000
   3389 O          12.2245   11.7636   18.2386 O.3     1  UNL1        0.0000
   3390 O           1.8008    8.5291   21.1287 O.3     1  UNL1        0.0000
   3391 O           9.0510    4.3962   22.8505 O.3     1  UNL1        0.0000
   3392 O           5.5982   16.8447   16.5408 O.3     1  UNL1        0.0000
   3393 O           6.4345   15.4578   18.1269 O.3     1  UNL1        0.0000
   3394 O           7.4991    4.6401   21.2238 O.3     1  UNL1        0.0000
   3395 O          13.8127   11.4393   16.6610 O.3     1  UNL1        0.0000
   3396 O           0.9898    9.9162   22.7267 O.3     1  UNL1        0.0000
   3397 O          11.1402   11.1844   15.6620 O.3     1  UNL1        0.0000
   3398 O           3.4940    9.0430   23.2271 O.3     1  UNL1        0.0000
   3399 O          12.0790   13.4717   16.1120 O.3     1  UNL1        0.0000
   3400 O           1.7418    7.3184   23.7198 O.3     1  UNL1        0.0000
   3401 O           6.3483    4.1104   23.8145 O.3     1  UNL1        0.0000
   3402 O           8.1168   16.0058   16.0426 O.3     1  UNL1        0.0000
   3403 O           7.3023    6.3719   23.3503 O.3     1  UNL1        0.0000
   3404 O           6.4105   14.2487   15.5251 O.3     1  UNL1        0.0000
   3405 O           8.7195    3.2562   25.1166 O.3     1  UNL1        0.0000
   3406 O           6.9670   17.9294   14.2686 O.3     1  UNL1        0.0000
   3407 O           9.5217    6.0444   25.1114 O.3     1  UNL1        0.0000
   3408 O           4.7311   16.0937   14.2085 O.3     1  UNL1        0.0000
   3409 O          14.2599   13.1189   14.2547 O.3     1  UNL1        0.0000
   3410 O           0.1055    9.1585   25.0425 O.3     1  UNL1        0.0000
   3411 O          13.4643   10.3646   14.2841 O.3     1  UNL1        0.0000
   3412 O           2.3737   10.9409   25.1238 O.3     1  UNL1        0.0000
   3413 O           9.3320   13.5759   16.1631 O.3     1  UNL1        0.0000
   3414 O           4.6301    6.5721   23.1441 O.3     1  UNL1        0.0000
   3415 O          11.7861   12.3508   13.2303 O.3     1  UNL1        0.0000
   3416 O           7.2185   15.4528   13.0635 O.3     1  UNL1        0.0000
   3417 H           8.4570    8.3765   21.5506 H       1  UNL1        0.0000
   3418 H           4.5353    2.5974   19.9031 H       1  UNL1        0.0000
   3419 H           9.2152   17.2913   18.7755 H       1  UNL1        0.0000
   3420 H           9.5651   10.1164   20.1200 H       1  UNL1        0.0000
   3421 H           4.6213   10.1588   20.7376 H       1  UNL1        0.0000
   3422 H           1.0374    5.0988   19.8015 H       1  UNL1        0.0000
   3423 H           5.9938    8.3919   21.8064 H       1  UNL1        0.0000
   3424 H           5.7355   11.9183   19.3414 H       1  UNL1        0.0000
   3425 H          10.3189   15.1153   18.3352 H       1  UNL1        0.0000
   3426 H          -3.2746   15.3487   18.7776 H       1  UNL1        0.0000
   3427 C           7.7122   11.1102   19.6424 C.ar    1  UNL1        0.0000
   3428 C           6.4775    9.1569   21.2013 C.ar    1  UNL1        0.0000
   3429 C          10.8900   15.9288   18.7830 C.ar    1  UNL1        0.0000
   3430 C           2.8586    3.9523   19.9183 C.ar    1  UNL1        0.0000
   3431 C           6.3161   11.1358   19.8242 C.ar    1  UNL1        0.0000
   3432 C           7.8679    9.1422   21.0492 C.ar    1  UNL1        0.0000
   3433 C          10.2640   17.1553   19.0340 C.ar    1  UNL1        0.0000
   3434 C           3.4874    2.7246   19.6405 C.ar    1  UNL1        0.0000
   3435 C          12.2432   15.7425   19.0872 C.ar    1  UNL1        0.0000
   3436 C           1.5052    4.1413   19.5832 C.ar    1  UNL1        0.0000
   3437 C           8.4870   10.1143   20.2631 C.ar    1  UNL1        0.0000
   3438 C           5.7010   10.1531   20.5973 C.ar    1  UNL1        0.0000
   3439 O           9.5893   11.9648   18.4421 O.3     1  UNL1        0.0000
   3440 O           2.9679    6.0861   20.9752 O.3     1  UNL1        0.0000
   3441 O           4.7922    4.7664   21.0452 O.3     1  UNL1        0.0000
   3442 O           7.6220   13.0446   18.2644 O.3     1  UNL1        0.0000
   3443 N          10.6590   17.3903   38.2660 N.pl3  49  UNL49       0.0000
   3444 N          11.1221   16.6581   40.2699 N.pl3  49  UNL49       0.0000
   3445 C          11.2792   16.1601   38.1163 C.2    49  UNL49       0.0000
   3446 C          11.5698   15.7020   39.3739 C.2    49  UNL49       0.0000
   3447 C          12.4367   17.7092   42.1123 C.3    49  UNL49       0.0000
   3448 C          10.2842   18.3048   37.1805 C.3    49  UNL49       0.0000
   3449 C          10.5785   17.6728   39.5757 C.3    49  UNL49       0.0000
   3450 C          11.3757   16.6815   41.7271 C.3    49  UNL49       0.0000
   3451 H          11.5358   15.7545   37.1474 H      49  UNL49       0.0000
   3452 H          12.0703   14.8001   39.7005 H      49  UNL49       0.0000
   3453 H          13.3981   17.4854   41.6372 H      49  UNL49       0.0000
   3454 H          11.1634   18.4506   36.5437 H      49  UNL49       0.0000
   3455 H          12.1469   18.7217   41.8053 H      49  UNL49       0.0000
   3456 H           9.4640   17.8615   36.6107 H      49  UNL49       0.0000
   3457 H          12.5608   17.6966   43.2025 H      49  UNL49       0.0000
   3458 H          11.6950   15.6673   41.9998 H      49  UNL49       0.0000
   3459 H           9.9904   19.2585   37.6254 H      49  UNL49       0.0000
   3460 H          10.2067   18.5992   39.9892 H      49  UNL49       0.0000
   3461 H          10.4140   16.8726   42.2161 H      49  UNL49       0.0000
   3462 N          13.4685   20.4230   37.8194 N.3    49  UNL49       0.0000
   3463 C          13.3547   21.8041   40.2310 C.3    49  UNL49       0.0000
   3464 C          15.6586   18.9173   38.0074 C.3    49  UNL49       0.0000
   3465 O          12.1223   22.4934   37.9924 O.2    49  UNL49       0.0000
   3466 O          11.3136   20.4803   39.2588 O.2    49  UNL49       0.0000
   3467 O          13.4939   18.1359   36.7512 O.2    49  UNL49       0.0000
   3468 O          13.4515   18.2421   39.2598 O.2    49  UNL49       0.0000
   3469 F          14.3855   22.6275   39.9241 F      49  UNL49       0.0000
   3470 F          16.1159   19.7047   39.0080 F      49  UNL49       0.0000
   3471 F          13.8612   20.7400   40.9101 F      49  UNL49       0.0000
   3472 F          12.4942   22.4681   41.0571 F      49  UNL49       0.0000
   3473 F          16.1465   19.3776   36.8192 F      49  UNL49       0.0000
   3474 F          16.1460   17.6626   38.1944 F      49  UNL49       0.0000
   3475 S          12.4210   21.2573   38.6976 S.O2   49  UNL49       0.0000
   3476 S          13.7971   18.8608   37.9836 S.O2   49  UNL49       0.0000
   3477 TI         -2.6423    2.1521   37.4687 Ti      1  UNL1        0.0000
   3478 TI          8.1882    5.0333   28.1039 Ti      1  UNL1        0.0000
   3479 TI          1.4544   -1.7841   35.6487 Ti      1  UNL1        0.0000
   3480 TI          2.9656    7.3781   29.8757 Ti      1  UNL1        0.0000
   3481 TI          1.9670    9.0564   27.9713 Ti      1  UNL1        0.0000
   3482 TI          3.3426   -2.0384   37.6021 Ti      1  UNL1        0.0000
   3483 TI         -1.6931    0.4162   35.5772 Ti      1  UNL1        0.0000
   3484 TI          6.2003    5.3359   29.9513 Ti      1  UNL1        0.0000
   3485 H          -2.1404    6.0492   37.2492 H       1  UNL1        0.0000
   3486 H           8.9969    1.1273   28.4245 H       1  UNL1        0.0000
   3487 H          -6.6022    1.3955   37.0862 H       1  UNL1        0.0000
   3488 H          11.5703    7.0376   28.3045 H       1  UNL1        0.0000
   3489 H           4.3182   -6.0729   37.2161 H       1  UNL1        0.0000
   3490 H          -2.0915    8.4665   28.2933 H       1  UNL1        0.0000
   3491 H           2.4614    7.4196   26.0982 H       1  UNL1        0.0000
   3492 H           6.3126    4.7907   26.4039 H       1  UNL1        0.0000
   3493 H           3.8525   -2.7055   32.0910 H       1  UNL1        0.0000
   3494 H           1.2421    9.2151   33.4946 H       1  UNL1        0.0000
   3495 H          -5.7657    3.8049   35.2213 H       1  UNL1        0.0000
   3496 H          10.9429    2.9490   30.4099 H       1  UNL1        0.0000
   3497 H          -3.4646    2.3574   31.8874 H       1  UNL1        0.0000
   3498 H          -1.1331   10.8842   30.3245 H       1  UNL1        0.0000
   3499 H           2.3592   12.1592   28.8267 H       1  UNL1        0.0000
   3500 H           8.8391   -0.8915   29.6270 H       1  UNL1        0.0000
   3501 H           5.0582    7.0582   28.5370 H       1  UNL1        0.0000
   3502 H           0.3737    0.0643   36.9423 H       1  UNL1        0.0000
   3503 H           7.5773   -0.1036   35.9917 H       1  UNL1        0.0000
   3504 H           6.0962   -0.5726   36.7391 H       1  UNL1        0.0000
   3505 H           8.1514    4.3301   34.8928 H       1  UNL1        0.0000
   3506 H           7.5817    4.6887   33.2743 H       1  UNL1        0.0000
   3507 H           7.0885   -5.0584   35.8017 H       1  UNL1        0.0000
   3508 H           5.8093   -3.9578   36.2591 H       1  UNL1        0.0000
   3509 C           8.7662    4.2921   30.9674 C.3     1  UNL1        0.0000
   3510 C          -3.6029    2.4135   34.6216 C.3     1  UNL1        0.0000
   3511 C           4.0349   -2.7948   34.7240 C.3     1  UNL1        0.0000
   3512 C           1.0294    9.3486   30.8350 C.3     1  UNL1        0.0000
   3513 C           9.6622    3.6878   31.9626 C.ar    1  UNL1        0.0000
   3514 C          -4.5348    3.0385   33.6446 C.ar    1  UNL1        0.0000
   3515 C           4.9751   -3.4091   33.7768 C.ar    1  UNL1        0.0000
   3516 C           0.1396    9.9954   31.8348 C.ar    1  UNL1        0.0000
   3517 C           9.4134    3.7627   33.3690 C.ar    1  UNL1        0.0000
   3518 C          -4.3184    2.9186   32.2566 C.ar    1  UNL1        0.0000
   3519 C           6.1045   -4.1694   34.2298 C.ar    1  UNL1        0.0000
   3520 C          -0.9551   10.7683   31.3899 C.ar    1  UNL1        0.0000
   3521 C           0.3941    9.8246   33.1897 C.ar    1  UNL1        0.0000
   3522 C           4.7274   -3.2770   32.3929 C.ar    1  UNL1        0.0000
   3523 C          10.7959    2.9888   31.4869 C.ar    1  UNL1        0.0000
   3524 C          -5.6349    3.7309   34.1433 C.ar    1  UNL1        0.0000
   3525 C           8.9780    1.2064   26.2804 C.ar    1  UNL1        0.0000
   3526 C           2.5082   12.9980   26.3055 C.ar    1  UNL1        0.0000
   3527 C          11.4624    6.9695   26.1544 C.ar    1  UNL1        0.0000
   3528 C          -1.8959    8.5119   26.1351 C.ar    1  UNL1        0.0000
   3529 C           3.7123    5.0349   31.8402 C.3     1  UNL1        0.0000
   3530 C          -1.0438   -2.0595   33.7584 C.3     1  UNL1        0.0000
   3531 C           8.8421    2.6612   26.2572 C.3     1  UNL1        0.0000
   3532 C           2.4155   11.5644   26.2680 C.3     1  UNL1        0.0000
   3533 C          10.1646    6.3527   26.2013 C.3     1  UNL1        0.0000
   3534 C          -0.4936    8.9263   26.1595 C.3     1  UNL1        0.0000
   3535 C           9.0173    0.5373   27.5101 C.ar    1  UNL1        0.0000
   3536 C          -2.1295    6.6376   38.1631 C.ar    1  UNL1        0.0000
   3537 C          12.1177    7.2443   27.3884 C.ar    1  UNL1        0.0000
   3538 C          -7.1637    1.2161   38.0016 C.ar    1  UNL1        0.0000
   3539 C           7.5221    0.1718   38.0161 C.ar    1  UNL1        0.0000
   3540 C          -2.5931    8.2815   27.3475 C.ar    1  UNL1        0.0000
   3541 C           4.3598   -6.6001   38.1652 C.ar    1  UNL1        0.0000
   3542 C           2.5220   13.7491   27.5347 C.ar    1  UNL1        0.0000
   3543 N           2.5771   13.1503   28.7729 N.pl3   1  UNL1        0.0000
   3544 N           6.9430   -0.0111   36.7771 N.pl3   1  UNL1        0.0000
   3545 N           8.3326    4.4090   33.9003 N.pl3   1  UNL1        0.0000
   3546 N           6.4355   -4.3277   35.5472 N.pl3   1  UNL1        0.0000
   3547 O           7.5899    4.6972   31.3332 O.3     1  UNL1        0.0000
   3548 O          -2.8339    1.4627   34.2234 O.3     1  UNL1        0.0000
   3549 O           4.4163   -2.6703   35.9451 O.3     1  UNL1        0.0000
   3550 O           0.9636    9.7782   29.6354 O.3     1  UNL1        0.0000
   3551 O           1.7999    8.3914   31.2215 O.3     1  UNL1        0.0000
   3552 O           2.8644   -2.4263   34.3184 O.3     1  UNL1        0.0000
   3553 O           9.1781    4.3729   29.7556 O.3     1  UNL1        0.0000
   3554 O          -3.6449    2.8498   35.8213 O.3     1  UNL1        0.0000
   3555 O           6.5056    4.1180   28.7566 O.3     1  UNL1        0.0000
   3556 O          -1.1407    1.9766   36.3217 O.3     1  UNL1        0.0000
   3557 O           7.4443    6.4053   29.2066 O.3     1  UNL1        0.0000
   3558 O          -2.8928    0.2519   36.8144 O.3     1  UNL1        0.0000
   3559 O           1.7137   -2.9560   36.9091 O.3     1  UNL1        0.0000
   3560 O           3.4821    8.9394   29.1372 O.3     1  UNL1        0.0000
   3561 O           2.6676   -0.6945   36.4449 O.3     1  UNL1        0.0000
   3562 O           1.7759    7.1823   28.6197 O.3     1  UNL1        0.0000
   3563 O           4.0849   -3.8103   38.2112 O.3     1  UNL1        0.0000
   3564 O           2.3324   10.8630   27.3632 O.3     1  UNL1        0.0000
   3565 O           4.8870   -1.0221   38.2060 O.3     1  UNL1        0.0000
   3566 O           0.0964    9.0273   27.3031 O.3     1  UNL1        0.0000
   3567 O           9.6252    6.0525   27.3493 O.3     1  UNL1        0.0000
   3568 O          -4.5291    2.0921   38.1371 O.3     1  UNL1        0.0000
   3569 O           8.8297    3.2981   27.3787 O.3     1  UNL1        0.0000
   3570 O          -2.2609    3.8744   38.2184 O.3     1  UNL1        0.0000
   3571 O           4.6973    6.5094   29.2577 O.3     1  UNL1        0.0000
   3572 O          -0.0046   -0.4944   36.2387 O.3     1  UNL1        0.0000
   3573 O           7.1515    5.2843   26.3249 O.3     1  UNL1        0.0000
   3574 O           2.5838    8.3864   26.1582 O.3     1  UNL1        0.0000
   3575 H           3.8223    1.3101   34.6453 H       1  UNL1        0.0000
   3576 H          -0.0993   -4.4691   32.9977 H       1  UNL1        0.0000
   3577 H           4.5805   10.2249   31.8701 H       1  UNL1        0.0000
   3578 H           4.9305    3.0499   33.2146 H       1  UNL1        0.0000
   3579 H          -0.0133    3.0923   33.8322 H       1  UNL1        0.0000
   3580 H          -3.5973   -1.9677   32.8961 H       1  UNL1        0.0000
   3581 H           1.3592    1.3254   34.9010 H       1  UNL1        0.0000
   3582 H           1.1008    4.8519   32.4360 H       1  UNL1        0.0000
   3583 H           5.6843    8.0489   31.4298 H       1  UNL1        0.0000
   3584 H          -7.9092    8.2822   31.8722 H       1  UNL1        0.0000
   3585 C           3.0776    4.0438   32.7370 C.ar    1  UNL1        0.0000
   3586 C           1.8429    2.0905   34.2959 C.ar    1  UNL1        0.0000
   3587 C           6.2554    8.8624   31.8776 C.ar    1  UNL1        0.0000
   3588 C          -1.7760   -3.1141   33.0129 C.ar    1  UNL1        0.0000
   3589 C           1.6815    4.0693   32.9188 C.ar    1  UNL1        0.0000
   3590 C           3.2333    2.0758   34.1438 C.ar    1  UNL1        0.0000
   3591 C           5.6293   10.0889   32.1286 C.ar    1  UNL1        0.0000
   3592 C          -1.1473   -4.3418   32.7351 C.ar    1  UNL1        0.0000
   3593 C           7.6086    8.6761   32.1818 C.ar    1  UNL1        0.0000
   3594 C          -3.1295   -2.9252   32.6778 C.ar    1  UNL1        0.0000
   3595 C           3.8524    3.0479   33.3577 C.ar    1  UNL1        0.0000
   3596 C           1.0663    3.0866   33.6919 C.ar    1  UNL1        0.0000
   3597 O           4.9546    4.8984   31.5367 O.3     1  UNL1        0.0000
   3598 O          -1.6667   -0.9804   34.0698 O.3     1  UNL1        0.0000
   3599 O           0.1576   -2.3000   34.1398 O.3     1  UNL1        0.0000
   3600 O           2.9874    5.9782   31.3590 O.3     1  UNL1        0.0000
   3601 N           6.0243   10.3238   51.3607 N.pl3  49  UNL49       0.0000
   3602 N           6.4874    9.5916   53.3645 N.pl3  49  UNL49       0.0000
   3603 C           6.6445    9.0937   51.2109 C.2    49  UNL49       0.0000
   3604 C           6.9351    8.6355   52.4685 C.2    49  UNL49       0.0000
   3605 C           7.8021   10.6428   55.2069 C.3    49  UNL49       0.0000
   3606 C           5.6496   11.2384   50.2751 C.3    49  UNL49       0.0000
   3607 C           5.9439   10.6064   52.6703 C.3    49  UNL49       0.0000
   3608 C           6.7410    9.6150   54.8217 C.3    49  UNL49       0.0000
   3609 H           6.9011    8.6880   50.2421 H      49  UNL49       0.0000
   3610 H           7.4356    7.7337   52.7951 H      49  UNL49       0.0000
   3611 H           8.7634   10.4189   54.7318 H      49  UNL49       0.0000
   3612 H           6.5287   11.3842   49.6383 H      49  UNL49       0.0000
   3613 H           7.5122   11.6552   54.8999 H      49  UNL49       0.0000
   3614 H           4.8294   10.7951   49.7053 H      49  UNL49       0.0000
   3615 H           7.9262   10.6302   56.2971 H      49  UNL49       0.0000
   3616 H           7.0604    8.6009   55.0944 H      49  UNL49       0.0000
   3617 H           5.3557   12.1921   50.7200 H      49  UNL49       0.0000
   3618 H           5.5721   11.5328   53.0839 H      49  UNL49       0.0000
   3619 H           5.7793    9.8062   55.3107 H      49  UNL49       0.0000
   3620 N           8.8338   13.3565   50.9140 N.3    49  UNL49       0.0000
   3621 C           8.7201   14.7376   53.3256 C.3    49  UNL49       0.0000
   3622 C          11.0240   11.8508   51.1020 C.3    49  UNL49       0.0000
   3623 O           7.4877   15.4269   51.0870 O.2    49  UNL49       0.0000
   3624 O           6.6789   13.4139   52.3534 O.2    49  UNL49       0.0000
   3625 O           8.8592   11.0695   49.8458 O.2    49  UNL49       0.0000
   3626 O           8.8169   11.1757   52.3544 O.2    49  UNL49       0.0000
   3627 F           9.7509   15.5610   53.0188 F      49  UNL49       0.0000
   3628 F          11.4813   12.6382   52.1026 F      49  UNL49       0.0000
   3629 F           9.2266   13.6736   54.0047 F      49  UNL49       0.0000
   3630 F           7.8596   15.4016   54.1517 F      49  UNL49       0.0000
   3631 F          11.5118   12.3112   49.9138 F      49  UNL49       0.0000
   3632 F          11.5113   10.5961   51.2890 F      49  UNL49       0.0000
   3633 S           7.7864   14.1908   51.7922 S.O2   49  UNL49       0.0000
   3634 S           9.1624   11.7944   51.0782 S.O2   49  UNL49       0.0000
   3635 TI         -7.2770   -4.9143   50.5633 Ti      1  UNL1        0.0000
   3636 TI          3.5535   -2.0331   41.1985 Ti      1  UNL1        0.0000
   3637 TI         -3.1803   -8.8505   48.7433 Ti      1  UNL1        0.0000
   3638 TI         -1.6691    0.3116   42.9703 Ti      1  UNL1        0.0000
   3639 TI         -2.6677    1.9899   41.0659 Ti      1  UNL1        0.0000
   3640 TI         -1.2921   -9.1048   50.6967 Ti      1  UNL1        0.0000
   3641 TI         -6.3278   -6.6502   48.6718 Ti      1  UNL1        0.0000
   3642 TI          1.5657   -1.7305   43.0459 Ti      1  UNL1        0.0000
   3643 H          -6.7751   -1.0172   50.3438 H      49  UNL49       0.0000
   3644 H           4.3623   -5.9391   41.5192 H       1  UNL1        0.0000
   3645 H         -11.2369   -5.6709   50.1808 H       7  UNL7        0.0000
   3646 H           6.9357   -0.0288   41.3991 H       1  UNL1        0.0000
   3647 H          -0.3165  -13.1394   50.3107 H      49  UNL49       0.0000
   3648 H          -6.7262    1.4000   41.3879 H       1  UNL1        0.0000
   3649 H          -2.1732    0.3531   39.1928 H       1  UNL1        0.0000
   3650 H           1.6780   -2.2758   39.4985 H       1  UNL1        0.0000
   3651 H          -0.7822   -9.7720   45.1856 H       1  UNL1        0.0000
   3652 H          -3.3925    2.1487   46.5892 H       1  UNL1        0.0000
   3653 H         -10.4004   -3.2616   48.3159 H       1  UNL1        0.0000
   3654 H           6.3083   -4.1174   43.5045 H       1  UNL1        0.0000
   3655 H          -8.0993   -4.7090   44.9821 H       1  UNL1        0.0000
   3656 H          -5.7677    3.8178   43.4191 H       1  UNL1        0.0000
   3657 H          -2.2754    5.0928   41.9213 H       1  UNL1        0.0000
   3658 H           4.2045   -7.9580   42.7216 H       1  UNL1        0.0000
   3659 H           0.4235   -0.0082   41.6316 H       1  UNL1        0.0000
   3660 H          -4.2610   -7.0021   50.0369 H       1  UNL1        0.0000
   3661 H           2.9427   -7.1700   49.0863 H      49  UNL49       0.0000
   3662 H           1.4615   -7.6391   49.8337 H      49  UNL49       0.0000
   3663 H           3.5168   -2.7364   47.9874 H       1  UNL1        0.0000
   3664 H           2.9471   -2.3778   46.3689 H       1  UNL1        0.0000
   3665 H           2.4538  -12.1248   48.8963 H       1  UNL1        0.0000
   3666 H           1.1747  -11.0242   49.3537 H       1  UNL1        0.0000
   3667 C           4.1315   -2.7743   44.0620 C.3     1  UNL1        0.0000
   3668 C          -8.2375   -4.6529   47.7162 C.3     1  UNL1        0.0000
   3669 C          -0.5998   -9.8612   47.8186 C.3     1  UNL1        0.0000
   3670 C          -3.6052    2.2821   43.9296 C.3     1  UNL1        0.0000
   3671 C           5.0276   -3.3786   45.0572 C.ar    1  UNL1        0.0000
   3672 C          -9.1694   -4.0279   46.7392 C.ar    1  UNL1        0.0000
   3673 C           0.3404  -10.4756   46.8714 C.ar    1  UNL1        0.0000
   3674 C          -4.4950    2.9289   44.9294 C.ar    1  UNL1        0.0000
   3675 C           4.7788   -3.3037   46.4636 C.ar    1  UNL1        0.0000
   3676 C          -8.9530   -4.1479   45.3512 C.ar    1  UNL1        0.0000
   3677 C           1.4699  -11.2359   47.3244 C.ar    1  UNL1        0.0000
   3678 C          -5.5898    3.7019   44.4845 C.ar    1  UNL1        0.0000
   3679 C          -4.2405    2.7582   46.2843 C.ar    1  UNL1        0.0000
   3680 C           0.0927  -10.3434   45.4875 C.ar    1  UNL1        0.0000
   3681 C           6.1612   -4.0776   44.5815 C.ar    1  UNL1        0.0000
   3682 C         -10.2696   -3.3355   47.2379 C.ar    1  UNL1        0.0000
   3683 C           4.3433   -5.8601   39.3751 C.ar    1  UNL1        0.0000
   3684 C          -2.1264    5.9315   39.4001 C.ar    1  UNL1        0.0000
   3685 C           6.8278   -0.0970   39.2491 C.ar    1  UNL1        0.0000
   3686 C          -6.5306    1.4455   39.2297 C.ar    1  UNL1        0.0000
   3687 C          -0.9224   -2.0315   44.9349 C.3     1  UNL1        0.0000
   3688 C          -5.6785   -9.1259   46.8530 C.3     1  UNL1        0.0000
   3689 C           4.2075   -4.4052   39.3519 C.3     1  UNL1        0.0000
   3690 C          -2.2192    4.4980   39.3626 C.3     1  UNL1        0.0000
   3691 C           5.5299   -0.7138   39.2959 C.3     1  UNL1        0.0000
   3692 C          -5.1283    1.8598   39.2541 C.3     1  UNL1        0.0000
   3693 C           4.3827   -6.5292   40.6047 C.ar    1  UNL1        0.0000
   3694 C          -6.7642   -0.4288   51.2577 C.2    49  UNL49       0.0000
   3695 C           7.4831    0.1778   40.4830 C.ar    1  UNL1        0.0000
   3696 C         -11.7984   -5.8503   51.0962 C.2     7  UNL7        0.0000
   3697 C           2.8874   -6.8947   51.1107 C.2    49  UNL49       0.0000
   3698 C          -7.2278    1.2151   40.4421 C.ar    1  UNL1        0.0000
   3699 C          -0.2748  -13.6665   51.2598 C.2    49  UNL49       0.0000
   3700 C          -2.1126    6.6827   40.6293 C.ar    1  UNL1        0.0000
   3701 N          -2.0576    6.0839   41.8675 N.pl3   1  UNL1        0.0000
   3702 N           2.3084   -7.0775   49.8717 N.pl3  49  UNL49       0.0000
   3703 N           3.6979   -2.6575   46.9949 N.pl3   1  UNL1        0.0000
   3704 N           1.8009  -11.3941   48.6418 N.pl3   1  UNL1        0.0000
   3705 O           2.9552   -2.3692   44.4278 O.3     1  UNL1        0.0000
   3706 O          -7.4685   -5.6038   47.3180 O.3     1  UNL1        0.0000
   3707 O          -0.2183   -9.7367   49.0397 O.3     1  UNL1        0.0000
   3708 O          -3.6711    2.7118   42.7300 O.3     1  UNL1        0.0000
   3709 O          -2.8347    1.3249   44.3161 O.3     1  UNL1        0.0000
   3710 O          -1.7702   -9.4928   47.4131 O.3     1  UNL1        0.0000
   3711 O           4.5434   -2.6936   42.8502 O.3     1  UNL1        0.0000
   3712 O          -8.2795   -4.2167   48.9160 O.3     1  UNL1        0.0000
   3713 O           1.8709   -2.9484   41.8512 O.3     1  UNL1        0.0000
   3714 O          -5.7753   -5.0898   49.4163 O.3     1  UNL1        0.0000
   3715 O           2.8097   -0.6612   42.3012 O.3     1  UNL1        0.0000
   3716 O          -7.5275   -6.8145   49.9090 O.3     1  UNL1        0.0000
   3717 O          -2.9210  -10.0225   50.0037 O.3     1  UNL1        0.0000
   3718 O          -1.1525    1.8729   42.2318 O.3     1  UNL1        0.0000
   3719 O          -1.9670   -7.7610   49.5395 O.3     1  UNL1        0.0000
   3720 O          -2.8588    0.1158   41.7144 O.3     1  UNL1        0.0000
   3721 O          -0.5498  -10.8767   51.3058 O.3     1  UNL1        0.0000
   3722 O          -2.3023    3.7966   40.4578 O.3     1  UNL1        0.0000
   3723 O           0.2524   -8.0885   51.3006 O.3     1  UNL1        0.0000
   3724 O          -4.5382    1.9608   40.3977 O.3     1  UNL1        0.0000
   3725 O           4.9906   -1.0140   40.4439 O.3     1  UNL1        0.0000
   3726 O          -9.1638   -4.9744   51.2317 O.3     1  UNL1        0.0000
   3727 O           4.1950   -3.7683   40.4733 O.3     1  UNL1        0.0000
   3728 O          -6.8956   -3.1920   51.3130 O.3     1  UNL1        0.0000
   3729 O           0.0627   -0.5570   42.3523 O.3     1  UNL1        0.0000
   3730 O          -4.6392   -7.5608   49.3333 O.3     1  UNL1        0.0000
   3731 O           2.5168   -1.7821   39.4195 O.3     1  UNL1        0.0000
   3732 O          -2.0508    1.3199   39.2528 O.3     1  UNL1        0.0000
   3733 H          -0.8123   -5.7563   47.7399 H       1  UNL1        0.0000
   3734 H          -4.7340  -11.5355   46.0923 H       1  UNL1        0.0000
   3735 H          -0.0541    3.1584   44.9647 H       1  UNL1        0.0000
   3736 H           0.2958   -4.0165   46.3092 H       1  UNL1        0.0000
   3737 H          -4.6479   -3.9741   46.9268 H       1  UNL1        0.0000
   3738 H          -8.2319   -9.0341   45.9907 H       1  UNL1        0.0000
   3739 H          -3.2755   -5.7410   47.9956 H       1  UNL1        0.0000
   3740 H          -3.5338   -2.2146   45.5306 H       1  UNL1        0.0000
   3741 H           1.0496    0.9824   44.5244 H       1  UNL1        0.0000
   3742 H         -12.5439    1.2158   44.9668 H       1  UNL1        0.0000
   3743 C          -1.5571   -3.0227   45.8316 C.ar    1  UNL1        0.0000
   3744 C          -2.7918   -4.9759   47.3905 C.ar    1  UNL1        0.0000
   3745 C           1.6207    1.7960   44.9722 C.ar    1  UNL1        0.0000
   3746 C          -6.4107  -10.1806   46.1075 C.ar    1  UNL1        0.0000
   3747 C          -2.9531   -2.9971   46.0134 C.ar    1  UNL1        0.0000
   3748 C          -1.4014   -4.9906   47.2384 C.ar    1  UNL1        0.0000
   3749 C           0.9947    3.0224   45.2232 C.ar    1  UNL1        0.0000
   3750 C          -5.7819  -11.4082   45.8297 C.ar    1  UNL1        0.0000
   3751 C           2.9739    1.6097   45.2765 C.ar    1  UNL1        0.0000
   3752 C          -7.7641   -9.9916   45.7725 C.ar    1  UNL1        0.0000
   3753 C          -0.7823   -4.0186   46.4524 C.ar    1  UNL1        0.0000
   3754 C          -3.5683   -3.9798   46.7865 C.ar    1  UNL1        0.0000
   3755 O           0.3200   -2.1681   44.6313 O.3     1  UNL1        0.0000
   3756 O          -6.3014   -8.0468   47.1644 O.3     1  UNL1        0.0000
   3757 O          -4.4770   -9.3665   47.2344 O.3     1  UNL1        0.0000
   3758 O          -1.6472   -1.0883   44.4536 O.3     1  UNL1        0.0000
   3759 N           1.3897    3.2574   64.4553 N.pl3  49  UNL49       0.0000
   3760 N           1.8528    2.5252   66.4592 N.pl3  49  UNL49       0.0000
   3761 C           2.0099    2.0272   64.3055 C.2    49  UNL49       0.0000
   3762 C           2.3005    1.5691   65.5631 C.2    49  UNL49       0.0000
   3763 C           3.1674    3.5763   68.3015 C.3    49  UNL49       0.0000
   3764 C           1.0149    4.1720   63.3697 C.3    49  UNL49       0.0000
   3765 C           1.3093    3.5399   65.7649 C.3    49  UNL49       0.0000
   3766 C           2.1064    2.5486   67.9163 C.3    49  UNL49       0.0000
   3767 H           2.2665    1.6216   63.3367 H      49  UNL49       0.0000
   3768 H           2.8010    0.6672   65.8897 H      49  UNL49       0.0000
   3769 H           4.1288    3.3525   67.8264 H      49  UNL49       0.0000
   3770 H           1.8941    4.3177   62.7329 H      49  UNL49       0.0000
   3771 H           2.8776    4.5888   67.9945 H      49  UNL49       0.0000
   3772 H           0.1947    3.7286   62.7999 H      49  UNL49       0.0000
   3773 H           3.2915    3.5638   69.3917 H      49  UNL49       0.0000
   3774 H           2.4257    1.5345   68.1890 H      49  UNL49       0.0000
   3775 H           0.7211    5.1257   63.8147 H      49  UNL49       0.0000
   3776 H           0.9374    4.4663   66.1785 H      49  UNL49       0.0000
   3777 H           1.1447    2.7397   68.4054 H      49  UNL49       0.0000
   3778 N           4.1992    6.2901   64.0087 N.3    49  UNL49       0.0000
   3779 C           4.0854    7.6712   66.4203 C.3    49  UNL49       0.0000
   3780 C           6.3893    4.7844   64.1966 C.3    49  UNL49       0.0000
   3781 O           2.8530    8.3605   64.1816 O.2    49  UNL49       0.0000
   3782 O           2.0443    6.3475   65.4480 O.2    49  UNL49       0.0000
   3783 O           4.2246    4.0030   62.9404 O.2    49  UNL49       0.0000
   3784 O           4.1822    4.1092   65.4490 O.2    49  UNL49       0.0000
   3785 F           5.1162    8.4946   66.1134 F      49  UNL49       0.0000
   3786 F           6.8466    5.5718   65.1972 F      49  UNL49       0.0000
   3787 F           4.5920    6.6072   67.0993 F      49  UNL49       0.0000
   3788 F           3.2249    8.3352   67.2463 F      49  UNL49       0.0000
   3789 F           6.8772    5.2447   63.0085 F      49  UNL49       0.0000
   3790 F           6.8767    3.5297   64.3836 F      49  UNL49       0.0000
   3791 S           3.1517    7.1244   64.8868 S.O2   49  UNL49       0.0000
   3792 S           4.5278    4.7279   64.1728 S.O2   49  UNL49       0.0000
   3793 TI          0.1099   30.8975   11.2229 Ti      1  UNL1        0.0000
   3794 TI         10.9404   33.7787    1.8581 Ti      1  UNL1        0.0000
   3795 TI          4.2066   26.9613    9.4029 Ti      1  UNL1        0.0000
   3796 TI          5.7178   36.1235    3.6299 Ti      1  UNL1        0.0000
   3797 TI          4.7192   37.8018    1.7255 Ti      1  UNL1        0.0000
   3798 TI          6.0948   26.7070   11.3563 Ti      1  UNL1        0.0000
   3799 TI          1.0591   29.1616    9.3315 Ti      1  UNL1        0.0000
   3800 TI          8.9526   34.0813    3.7056 Ti      1  UNL1        0.0000
   3801 H           0.6118   34.7946   11.0035 H       1  UNL1        0.0000
   3802 H          11.7492   29.8727    2.1788 H       1  UNL1        0.0000
   3803 H          -3.8500   30.1409   10.8405 H       1  UNL1        0.0000
   3804 H          14.3226   35.7830    2.0588 H       1  UNL1        0.0000
   3805 H           7.0704   22.6724   10.9704 H       1  UNL1        0.0000
   3806 H           0.6607   37.2119    2.0476 H       1  UNL1        0.0000
   3807 H           5.2137   36.1650   -0.1476 H       1  UNL1        0.0000
   3808 H           9.0649   33.5360    0.1582 H       1  UNL1        0.0000
   3809 H           6.6047   26.0399    5.8452 H       1  UNL1        0.0000
   3810 H           3.9944   37.9605    7.2489 H       1  UNL1        0.0000
   3811 H          -3.0135   32.5503    8.9755 H       1  UNL1        0.0000
   3812 H          13.6952   31.6944    4.1641 H       1  UNL1        0.0000
   3813 H          -0.7124   31.1028    5.6417 H       1  UNL1        0.0000
   3814 H           1.6192   39.6296    4.0788 H       1  UNL1        0.0000
   3815 H           5.1115   40.9046    2.5810 H       1  UNL1        0.0000
   3816 H          11.5914   27.8538    3.3813 H       1  UNL1        0.0000
   3817 H           7.8104   35.8036    2.2913 H       1  UNL1        0.0000
   3818 H           3.1259   28.8097   10.6966 H       1  UNL1        0.0000
   3819 H          10.3296   28.6418    9.7460 H       1  UNL1        0.0000
   3820 H           8.8484   28.1728   10.4933 H       1  UNL1        0.0000
   3821 H          10.9037   33.0755    8.6471 H       1  UNL1        0.0000
   3822 H          10.3340   33.4340    7.0285 H       1  UNL1        0.0000
   3823 H           9.8408   23.6870    9.5559 H       1  UNL1        0.0000
   3824 H           8.5616   24.7876   10.0133 H       1  UNL1        0.0000
   3825 C          11.5185   33.0375    4.7216 C.3     1  UNL1        0.0000
   3826 C          -0.8506   31.1589    8.3759 C.3     1  UNL1        0.0000
   3827 C           6.7871   25.9506    8.4782 C.3     1  UNL1        0.0000
   3828 C           3.7817   38.0940    4.5893 C.3     1  UNL1        0.0000
   3829 C          12.4145   32.4332    5.7168 C.ar    1  UNL1        0.0000
   3830 C          -1.7825   31.7839    7.3989 C.ar    1  UNL1        0.0000
   3831 C           7.7273   25.3363    7.5310 C.ar    1  UNL1        0.0000
   3832 C           2.8919   38.7408    5.5891 C.ar    1  UNL1        0.0000
   3833 C          12.1657   32.5081    7.1233 C.ar    1  UNL1        0.0000
   3834 C          -1.5661   31.6639    6.0108 C.ar    1  UNL1        0.0000
   3835 C           8.8568   24.5760    7.9841 C.ar    1  UNL1        0.0000
   3836 C           1.7972   39.5137    5.1441 C.ar    1  UNL1        0.0000
   3837 C           3.1464   38.5700    6.9440 C.ar    1  UNL1        0.0000
   3838 C           7.4796   25.4684    6.1471 C.ar    1  UNL1        0.0000
   3839 C          13.5481   31.7342    5.2411 C.ar    1  UNL1        0.0000
   3840 C          -2.8827   32.4763    7.8975 C.ar    1  UNL1        0.0000
   3841 C          11.7302   29.9517    0.0347 C.2     1  UNL1        0.0000
   3842 C           5.2605   41.7433    0.0597 C.2     1  UNL1        0.0000
   3843 C          14.2147   35.7149   -0.0913 C.2     1  UNL1        0.0000
   3844 C           0.8563   37.2573   -0.1107 C.2     1  UNL1        0.0000
   3845 C           6.4645   33.7803    5.5945 C.3     1  UNL1        0.0000
   3846 C           1.7084   26.6859    7.5126 C.3     1  UNL1        0.0000
   3847 C          11.5944   31.4066    0.0115 C.2     1  UNL1        0.0000
   3848 C           5.1677   40.3098    0.0222 C.2     1  UNL1        0.0000
   3849 C          12.9168   35.0980   -0.0444 C.2     1  UNL1        0.0000
   3850 C           2.2586   37.6716   -0.0862 C.2     1  UNL1        0.0000
   3851 C          11.7696   29.2826    1.2644 C.2     1  UNL1        0.0000
   3852 C           0.6227   35.3830   11.9174 C.ar    1  UNL1        0.0000
   3853 C          14.8700   35.9897    1.1427 C.2     1  UNL1        0.0000
   3854 C          -4.4114   29.9615   11.7558 C.ar    1  UNL1        0.0000
   3855 C          10.2743   28.9172   11.7703 C.ar    1  UNL1        0.0000
   3856 C           0.1591   37.0269    1.1018 C.2     1  UNL1        0.0000
   3857 C           7.1121   22.1453   11.9194 C.ar    1  UNL1        0.0000
   3858 C           5.2743   42.4945    1.2890 C.2     1  UNL1        0.0000
   3859 N           5.3293   41.8957    2.5272 N.pl3   1  UNL1        0.0000
   3860 N           9.6953   28.7343   10.5314 N.pl3   1  UNL1        0.0000
   3861 N          11.0848   33.1543    7.6546 N.pl3   1  UNL1        0.0000
   3862 N           9.1878   24.4177    9.3015 N.pl3   1  UNL1        0.0000
   3863 O          10.3421   33.4426    5.0874 O.3     1  UNL1        0.0000
   3864 O          -0.0816   30.2080    7.9776 O.3     1  UNL1        0.0000
   3865 O           7.1686   26.0751    9.6993 O.3     1  UNL1        0.0000
   3866 O           3.7158   38.5236    3.3897 O.3     1  UNL1        0.0000
   3867 O           4.5522   37.1367    4.9757 O.3     1  UNL1        0.0000
   3868 O           5.6167   26.3191    8.0727 O.3     1  UNL1        0.0000
   3869 O          11.9303   33.1182    3.5099 O.3     1  UNL1        0.0000
   3870 O          -0.8926   31.5952    9.5756 O.3     1  UNL1        0.0000
   3871 O           9.2578   32.8634    2.5109 O.3     1  UNL1        0.0000
   3872 O           1.6116   30.7220   10.0760 O.3     1  UNL1        0.0000
   3873 O          10.1966   35.1507    2.9609 O.3     1  UNL1        0.0000
   3874 O          -0.1406   28.9973   10.5686 O.3     1  UNL1        0.0000
   3875 O           4.4659   25.7894   10.6634 O.3     1  UNL1        0.0000
   3876 O           6.2344   37.6848    2.8914 O.3     1  UNL1        0.0000
   3877 O           5.4199   28.0508   10.1992 O.3     1  UNL1        0.0000
   3878 O           4.5281   35.9277    2.3740 O.3     1  UNL1        0.0000
   3879 O           6.8372   24.9351   11.9654 O.3     1  UNL1        0.0000
   3880 O           5.0846   39.6084    1.1174 O.2     1  UNL1        0.0000
   3881 O           7.6393   27.7233   11.9603 O.3     1  UNL1        0.0000
   3882 O           2.8487   37.7727    1.0574 O.2     1  UNL1        0.0000
   3883 O          12.3775   34.7979    1.1036 O.2     1  UNL1        0.0000
   3884 O          -1.7768   30.8375   11.8914 O.3     1  UNL1        0.0000
   3885 O          11.5819   32.0435    1.1330 O.2     1  UNL1        0.0000
   3886 O           0.4914   32.6198   11.9726 O.3     1  UNL1        0.0000
   3887 O           7.4496   35.2548    3.0120 O.3     1  UNL1        0.0000
   3888 O           2.7477   28.2510    9.9930 O.3     1  UNL1        0.0000
   3889 O           9.9037   34.0297    0.0792 O.3     1  UNL1        0.0000
   3890 O           5.3361   37.1318   -0.0876 O.3     1  UNL1        0.0000
   3891 H           6.5746   30.0555    8.3995 H       1  UNL1        0.0000
   3892 H           2.6529   24.2763    6.7520 H       1  UNL1        0.0000
   3893 H           7.3328   38.9703    5.6244 H       1  UNL1        0.0000
   3894 H           7.6828   31.7953    6.9689 H       1  UNL1        0.0000
   3895 H           2.7390   31.8377    7.5864 H       1  UNL1        0.0000
   3896 H          -0.8450   26.7777    6.6503 H       1  UNL1        0.0000
   3897 H           4.1114   30.0708    8.6552 H       1  UNL1        0.0000
   3898 H           3.8531   33.5973    6.1903 H       1  UNL1        0.0000
   3899 H           8.4365   36.7942    5.1841 H       1  UNL1        0.0000
   3900 H          -5.1569   37.0276    5.6265 H       1  UNL1        0.0000
   3901 C           5.8298   32.7892    6.4913 C.ar    1  UNL1        0.0000
   3902 C           4.5951   30.8359    8.0501 C.ar    1  UNL1        0.0000
   3903 C           9.0077   37.6078    5.6319 C.ar    1  UNL1        0.0000
   3904 C           0.9762   25.6312    6.7672 C.ar    1  UNL1        0.0000
   3905 C           4.4338   32.8147    6.6731 C.ar    1  UNL1        0.0000
   3906 C           5.9856   30.8212    7.8981 C.ar    1  UNL1        0.0000
   3907 C           8.3816   38.8343    5.8828 C.ar    1  UNL1        0.0000
   3908 C           1.6050   24.4036    6.4894 C.ar    1  UNL1        0.0000
   3909 C          10.3608   37.4215    5.9361 C.ar    1  UNL1        0.0000
   3910 C          -0.3772   25.8202    6.4321 C.ar    1  UNL1        0.0000
   3911 C           6.6047   31.7932    7.1120 C.ar    1  UNL1        0.0000
   3912 C           3.8186   31.8320    7.4461 C.ar    1  UNL1        0.0000
   3913 O           7.7069   33.6437    5.2910 O.3     1  UNL1        0.0000
   3914 O           1.0855   27.7650    7.8241 O.3     1  UNL1        0.0000
   3915 O           2.9099   26.4453    7.8941 O.3     1  UNL1        0.0000
   3916 O           5.7397   34.7236    5.1132 O.3     1  UNL1        0.0000
   3917 N           8.7766   39.0692   25.1149 N.pl3  49  UNL49       0.0000
   3918 N           9.2397   38.3370   27.1188 N.pl3  49  UNL49       0.0000
   3919 C           9.3968   37.8391   24.9652 C.2    49  UNL49       0.0000
   3920 C           9.6874   37.3809   26.2228 C.2    49  UNL49       0.0000
   3921 C          10.5544   39.3882   28.9611 C.3    49  UNL49       0.0000
   3922 C           8.4018   39.9838   24.0294 C.3    49  UNL49       0.0000
   3923 C           8.6962   39.3517   26.4246 C.3    49  UNL49       0.0000
   3924 C           9.4933   38.3604   28.5759 C.3    49  UNL49       0.0000
   3925 H           9.6534   37.4334   23.9963 H      49  UNL49       0.0000
   3926 H          10.1879   36.4790   26.5493 H      49  UNL49       0.0000
   3927 H          11.5157   39.1643   28.4860 H      49  UNL49       0.0000
   3928 H           9.2810   40.1296   23.3926 H      49  UNL49       0.0000
   3929 H          10.2645   40.4006   28.6541 H      49  UNL49       0.0000
   3930 H           7.5816   39.5404   23.4595 H      49  UNL49       0.0000
   3931 H          10.6784   39.3756   30.0514 H      49  UNL49       0.0000
   3932 H           9.8126   37.3463   28.8487 H      49  UNL49       0.0000
   3933 H           8.1080   40.9375   24.4743 H      49  UNL49       0.0000
   3934 H           8.3243   40.2781   26.8381 H      49  UNL49       0.0000
   3935 H           8.5316   38.5515   29.0650 H      49  UNL49       0.0000
   3936 N          11.5861   42.1019   24.6683 N.3    49  UNL49       0.0000
   3937 C          11.4723   43.4830   27.0799 C.3    49  UNL49       0.0000
   3938 C          13.7762   40.5962   24.8562 C.3    49  UNL49       0.0000
   3939 O          10.2399   44.1723   24.8412 O.2    49  UNL49       0.0000
   3940 O           9.4312   42.1593   26.1077 O.2    49  UNL49       0.0000
   3941 O          11.6115   39.8148   23.6001 O.2    49  UNL49       0.0000
   3942 O          11.5691   39.9211   26.1087 O.2    49  UNL49       0.0000
   3943 F          12.5031   44.3064   26.7730 F      49  UNL49       0.0000
   3944 F          14.2335   41.3836   25.8569 F      49  UNL49       0.0000
   3945 F          11.9789   42.4190   27.7590 F      49  UNL49       0.0000
   3946 F          10.6118   44.1470   27.9060 F      49  UNL49       0.0000
   3947 F          14.2641   41.0566   23.6681 F      49  UNL49       0.0000
   3948 F          14.2636   39.3415   25.0433 F      49  UNL49       0.0000
   3949 S          10.5386   42.9362   25.5465 S.O2   49  UNL49       0.0000
   3950 S          11.9147   40.5397   24.8324 S.O2   49  UNL49       0.0000
   3951 TI         -4.5247   23.8311   24.3175 Ti      1  UNL1        0.0000
   3952 TI          6.3058   26.7123   14.9527 Ti      1  UNL1        0.0000
   3953 TI         -0.4280   19.8949   22.4976 Ti      1  UNL1        0.0000
   3954 TI          1.0832   29.0570   16.7245 Ti      1  UNL1        0.0000
   3955 TI          0.0846   30.7353   14.8201 Ti      1  UNL1        0.0000
   3956 TI          1.4602   19.6405   24.4509 Ti      1  UNL1        0.0000
   3957 TI         -3.5755   22.0952   22.4261 Ti      1  UNL1        0.0000
   3958 TI          4.3180   27.0148   16.8002 Ti      1  UNL1        0.0000
   3959 H          -4.0228   27.7282   24.0981 H       1  UNL1        0.0000
   3960 H           7.1146   22.8062   15.2734 H       1  UNL1        0.0000
   3961 H          -8.4846   23.0745   23.9351 H       1  UNL1        0.0000
   3962 H           9.6879   28.7166   15.1534 H       1  UNL1        0.0000
   3963 H           2.4358   15.6060   24.0650 H       1  UNL1        0.0000
   3964 H          -3.9739   30.1454   15.1422 H       1  UNL1        0.0000
   3965 H           0.5791   29.0985   12.9471 H       1  UNL1        0.0000
   3966 H           4.4302   26.4696   13.2528 H       1  UNL1        0.0000
   3967 H           1.9701   18.9734   18.9398 H       1  UNL1        0.0000
   3968 H          -0.6403   30.8940   20.3435 H       1  UNL1        0.0000
   3969 H          -7.6481   25.4838   22.0702 H       1  UNL1        0.0000
   3970 H           9.0605   24.6280   17.2587 H       1  UNL1        0.0000
   3971 H          -5.3470   24.0364   18.7363 H       1  UNL1        0.0000
   3972 H          -3.0155   32.5632   17.1734 H       1  UNL1        0.0000
   3973 H           0.4768   33.8382   15.6756 H       1  UNL1        0.0000
   3974 H           6.9567   20.7874   16.4759 H       1  UNL1        0.0000
   3975 H           3.1758   28.7371   15.3859 H       1  UNL1        0.0000
   3976 H          -1.5087   21.7433   23.7912 H       1  UNL1        0.0000
   3977 H           5.6949   21.5754   22.8406 H       1  UNL1        0.0000
   3978 H           4.2138   21.1063   23.5879 H       1  UNL1        0.0000
   3979 H           6.2690   26.0090   21.7417 H       1  UNL1        0.0000
   3980 H           5.6993   26.3676   20.1231 H       1  UNL1        0.0000
   3981 H           5.2061   16.6206   22.6506 H       1  UNL1        0.0000
   3982 H           3.9270   17.7211   23.1080 H       1  UNL1        0.0000
   3983 C           6.8838   25.9711   17.8163 C.3     1  UNL1        0.0000
   3984 C          -5.4853   24.0925   21.4705 C.3     1  UNL1        0.0000
   3985 C           2.1525   18.8842   21.5728 C.3     1  UNL1        0.0000
   3986 C          -0.8529   31.0275   17.6839 C.3     1  UNL1        0.0000
   3987 C           7.7798   25.3667   18.8114 C.ar    1  UNL1        0.0000
   3988 C          -6.4172   24.7175   20.4935 C.ar    1  UNL1        0.0000
   3989 C           3.0927   18.2698   20.6256 C.ar    1  UNL1        0.0000
   3990 C          -1.7428   31.6743   18.6837 C.ar    1  UNL1        0.0000
   3991 C           7.5311   25.4417   20.2179 C.ar    1  UNL1        0.0000
   3992 C          -6.2008   24.5975   19.1054 C.ar    1  UNL1        0.0000
   3993 C           4.2221   17.5095   21.0787 C.ar    1  UNL1        0.0000
   3994 C          -2.8375   32.4473   18.2388 C.ar    1  UNL1        0.0000
   3995 C          -1.4883   31.5036   20.0386 C.ar    1  UNL1        0.0000
   3996 C           2.8450   18.4020   19.2417 C.ar    1  UNL1        0.0000
   3997 C           8.9135   24.6678   18.3357 C.ar    1  UNL1        0.0000
   3998 C          -7.5173   25.4099   20.9921 C.ar    1  UNL1        0.0000
   3999 C           7.0956   22.8853   13.1293 C.ar    1  UNL1        0.0000
   4000 C           0.6258   34.6769   13.1543 C.ar    1  UNL1        0.0000
   4001 C           9.5800   28.6484   13.0033 C.ar    1  UNL1        0.0000
   4002 C          -3.7783   30.1909   12.9839 C.ar    1  UNL1        0.0000
   4003 C           1.8299   26.7138   18.6891 C.3     1  UNL1        0.0000
   4004 C          -2.9262   19.6195   20.6073 C.3     1  UNL1        0.0000
   4005 C           6.9597   24.3402   13.1061 C.3     1  UNL1        0.0000
   4006 C           0.5331   33.2434   13.1168 C.3     1  UNL1        0.0000
   4007 C           8.2822   28.0316   13.0502 C.3     1  UNL1        0.0000
   4008 C          -2.3760   30.6052   13.0084 C.3     1  UNL1        0.0000
   4009 C           7.1349   22.2162   14.3590 C.ar    1  UNL1        0.0000
   4010 C          -4.0119   28.3166   25.0120 C.ar    1  UNL1        0.0000
   4011 C          10.2353   28.9232   14.2373 C.ar    1  UNL1        0.0000
   4012 C          -9.0461   22.8951   24.8504 C.ar    1  UNL1        0.0000
   4013 C           5.6397   21.8507   24.8649 C.ar    1  UNL1        0.0000
   4014 C          -4.4755   29.9604   14.1964 C.ar    1  UNL1        0.0000
   4015 C           2.4774   15.0788   25.0141 C.ar    1  UNL1        0.0000
   4016 C           0.6396   35.4281   14.3836 C.ar    1  UNL1        0.0000
   4017 N           0.6947   34.8293   15.6218 N.pl3   1  UNL1        0.0000
   4018 N           5.0606   21.6679   23.6260 N.pl3   1  UNL1        0.0000
   4019 N           6.4502   26.0879   20.7492 N.pl3   1  UNL1        0.0000
   4020 N           4.5531   17.3513   22.3961 N.pl3   1  UNL1        0.0000
   4021 O           5.7075   26.3762   18.1821 O.3     1  UNL1        0.0000
   4022 O          -4.7163   23.1416   21.0722 O.3     1  UNL1        0.0000
   4023 O           2.5339   19.0087   22.7939 O.3     1  UNL1        0.0000
   4024 O          -0.9188   31.4572   16.4843 O.3     1  UNL1        0.0000
   4025 O          -0.0825   30.0703   18.0703 O.3     1  UNL1        0.0000
   4026 O           0.9821   19.2526   21.1673 O.3     1  UNL1        0.0000
   4027 O           7.2957   26.0518   16.6045 O.3     1  UNL1        0.0000
   4028 O          -5.5273   24.5287   22.6702 O.3     1  UNL1        0.0000
   4029 O           4.6232   25.7969   15.6055 O.3     1  UNL1        0.0000
   4030 O          -3.0230   23.6555   23.1706 O.3     1  UNL1        0.0000
   4031 O           5.5620   28.0842   16.0555 O.3     1  UNL1        0.0000
   4032 O          -4.7752   21.9309   23.6632 O.3     1  UNL1        0.0000
   4033 O          -0.1687   18.7229   23.7580 O.3     1  UNL1        0.0000
   4034 O           1.5997   30.6183   15.9861 O.3     1  UNL1        0.0000
   4035 O           0.7852   20.9844   23.2938 O.3     1  UNL1        0.0000
   4036 O          -0.1065   28.8612   15.4686 O.3     1  UNL1        0.0000
   4037 O           2.2025   17.8687   25.0600 O.3     1  UNL1        0.0000
   4038 O           0.4500   32.5419   14.2120 O.3     1  UNL1        0.0000
   4039 O           3.0047   20.6569   25.0549 O.3     1  UNL1        0.0000
   4040 O          -1.7859   30.7062   14.1520 O.3     1  UNL1        0.0000
   4041 O           7.7428   27.7314   14.1982 O.3     1  UNL1        0.0000
   4042 O          -6.4115   23.7710   24.9860 O.3     1  UNL1        0.0000
   4043 O           6.9473   24.9771   14.2276 O.3     1  UNL1        0.0000
   4044 O          -4.1433   25.5534   25.0672 O.3     1  UNL1        0.0000
   4045 O           2.8150   28.1884   16.1066 O.3     1  UNL1        0.0000
   4046 O          -1.8870   21.1846   23.0876 O.3     1  UNL1        0.0000
   4047 O           5.2691   26.9633   13.1738 O.3     1  UNL1        0.0000
   4048 O           0.7014   30.0653   13.0070 O.3     1  UNL1        0.0000
   4049 H           1.9399   22.9891   21.4941 H       1  UNL1        0.0000
   4050 H          -1.9817   17.2099   19.8466 H       1  UNL1        0.0000
   4051 H           2.6982   31.9038   18.7190 H       1  UNL1        0.0000
   4052 H           3.0481   24.7289   20.0635 H       1  UNL1        0.0000
   4053 H          -1.8957   24.7713   20.6811 H       1  UNL1        0.0000
   4054 H          -5.4796   19.7113   19.7449 H       1  UNL1        0.0000
   4055 H          -0.5232   23.0044   21.7498 H       1  UNL1        0.0000
   4056 H          -0.7815   26.5308   19.2849 H       1  UNL1        0.0000
   4057 H           3.8019   29.7278   18.2787 H       1  UNL1        0.0000
   4058 H          -9.7916   29.9612   18.7211 H       1  UNL1        0.0000
   4059 C           1.1952   25.7227   19.5859 C.ar    1  UNL1        0.0000
   4060 C          -0.0395   23.7694   21.1447 C.ar    1  UNL1        0.0000
   4061 C           4.3730   30.5413   18.7265 C.ar    1  UNL1        0.0000
   4062 C          -3.6584   18.5648   19.8618 C.ar    1  UNL1        0.0000
   4063 C          -0.2009   25.7483   19.7677 C.ar    1  UNL1        0.0000
   4064 C           1.3509   23.7548   20.9927 C.ar    1  UNL1        0.0000
   4065 C           3.7469   31.7678   18.9774 C.ar    1  UNL1        0.0000
   4066 C          -3.0297   17.3372   19.5840 C.ar    1  UNL1        0.0000
   4067 C           5.7262   30.3551   19.0307 C.ar    1  UNL1        0.0000
   4068 C          -5.0119   18.7538   19.5267 C.ar    1  UNL1        0.0000
   4069 C           1.9700   24.7268   20.2066 C.ar    1  UNL1        0.0000
   4070 C          -0.8161   24.7656   20.5408 C.ar    1  UNL1        0.0000
   4071 O           3.0723   26.5773   18.3856 O.3     1  UNL1        0.0000
   4072 O          -3.5491   20.6986   20.9187 O.3     1  UNL1        0.0000
   4073 O          -1.7248   19.3789   20.9887 O.3     1  UNL1        0.0000
   4074 O           1.1050   27.6571   18.2079 O.3     1  UNL1        0.0000
   4075 N           4.1419   32.0028   38.2095 N.pl3  49  UNL49       0.0000
   4076 N           4.6050   31.2706   40.2134 N.pl3  49  UNL49       0.0000
   4077 C           4.7622   30.7726   38.0598 C.2    49  UNL49       0.0000
   4078 C           5.0527   30.3145   39.3174 C.2    49  UNL49       0.0000
   4079 C           5.9197   32.3217   42.0558 C.3    49  UNL49       0.0000
   4080 C           3.7672   32.9173   37.1240 C.3    49  UNL49       0.0000
   4081 C           4.0615   32.2853   39.5192 C.3    49  UNL49       0.0000
   4082 C           4.8586   31.2940   41.6705 C.3    49  UNL49       0.0000
   4083 H           5.0188   30.3670   37.0909 H      49  UNL49       0.0000
   4084 H           5.5533   29.4126   39.6439 H      49  UNL49       0.0000
   4085 H           6.8810   32.0979   41.5806 H      49  UNL49       0.0000
   4086 H           4.6463   33.0631   36.4872 H      49  UNL49       0.0000
   4087 H           5.6299   33.3342   41.7488 H      49  UNL49       0.0000
   4088 H           2.9470   32.4740   36.5541 H      49  UNL49       0.0000
   4089 H           6.0438   32.3092   43.1460 H      49  UNL49       0.0000
   4090 H           5.1780   30.2799   41.9433 H      49  UNL49       0.0000
   4091 H           3.4734   33.8710   37.5689 H      49  UNL49       0.0000
   4092 H           3.6897   33.2117   39.9327 H      49  UNL49       0.0000
   4093 H           3.8970   31.4851   42.1596 H      49  UNL49       0.0000
   4094 N           6.9514   35.0355   37.7629 N.3    49  UNL49       0.0000
   4095 C           6.8377   36.4166   40.1745 C.3    49  UNL49       0.0000
   4096 C           9.1416   33.5298   37.9508 C.3    49  UNL49       0.0000
   4097 O           5.6053   37.1059   37.9358 O.2    49  UNL49       0.0000
   4098 O           4.7965   35.0929   39.2023 O.2    49  UNL49       0.0000
   4099 O           6.9769   32.7484   36.6947 O.2    49  UNL49       0.0000
   4100 O           6.9345   32.8546   39.2033 O.2    49  UNL49       0.0000
   4101 F           7.8685   37.2400   39.8676 F      49  UNL49       0.0000
   4102 F           9.5989   34.3172   38.9515 F      49  UNL49       0.0000
   4103 F           7.3442   35.3526   40.8536 F      49  UNL49       0.0000
   4104 F           5.9772   37.0806   41.0006 F      49  UNL49       0.0000
   4105 F           9.6294   33.9901   36.7627 F      49  UNL49       0.0000
   4106 F           9.6289   32.2751   38.1379 F      49  UNL49       0.0000
   4107 S           5.9040   35.8698   38.6411 S.O2   49  UNL49       0.0000
   4108 S           7.2800   33.4733   37.9270 S.O2   49  UNL49       0.0000
   4109 TI         -9.1594   16.7646   37.4121 Ti      1  UNL1        0.0000
   4110 TI          1.6711   19.6459   28.0473 Ti      1  UNL1        0.0000
   4111 TI         -5.0627   12.8284   35.5922 Ti      1  UNL1        0.0000
   4112 TI         -3.5515   21.9906   29.8191 Ti      1  UNL1        0.0000
   4113 TI         -4.5500   23.6689   27.9147 Ti      1  UNL1        0.0000
   4114 TI         -3.1745   12.5741   37.5455 Ti      1  UNL1        0.0000
   4115 TI         -8.2102   15.0288   35.5207 Ti      1  UNL1        0.0000
   4116 TI         -0.3167   19.9484   29.8948 Ti      1  UNL1        0.0000
   4117 H          -8.6575   20.6617   37.1927 H       1  UNL1        0.0000
   4118 H           2.4799   15.7398   28.3680 H       1  UNL1        0.0000
   4119 H         -13.1193   16.0080   37.0297 H       1  UNL1        0.0000
   4120 H           5.0533   21.6502   28.2480 H       1  UNL1        0.0000
   4121 H          -2.1989    8.5396   37.1596 H       1  UNL1        0.0000
   4122 H          -8.6086   23.0790   28.2368 H       1  UNL1        0.0000
   4123 H          -4.0556   22.0321   26.0417 H       1  UNL1        0.0000
   4124 H          -0.2044   19.4032   26.3474 H       1  UNL1        0.0000
   4125 H          -2.6646   11.9070   32.0344 H       1  UNL1        0.0000
   4126 H          -5.2749   23.8276   33.4381 H       1  UNL1        0.0000
   4127 H         -12.2828   18.4174   35.1648 H       1  UNL1        0.0000
   4128 H           4.4259   17.5615   30.3533 H       1  UNL1        0.0000
   4129 H          -9.9817   16.9699   31.8309 H       1  UNL1        0.0000
   4130 H          -7.6501   25.4967   30.2680 H       1  UNL1        0.0000
   4131 H          -4.1578   26.7717   28.7702 H       1  UNL1        0.0000
   4132 H           2.3221   13.7210   29.5705 H       1  UNL1        0.0000
   4133 H          -1.4589   21.6707   28.4805 H       1  UNL1        0.0000
   4134 H          -6.1434   14.6768   36.8858 H       1  UNL1        0.0000
   4135 H           1.0603   14.5090   35.9352 H       1  UNL1        0.0000
   4136 H          -0.4208   14.0399   36.6825 H       1  UNL1        0.0000
   4137 H           1.6344   18.9426   34.8363 H       1  UNL1        0.0000
   4138 H           1.0647   19.3012   33.2178 H       1  UNL1        0.0000
   4139 H           0.5715    9.5541   35.7452 H       1  UNL1        0.0000
   4140 H          -0.7077   10.6547   36.2026 H       1  UNL1        0.0000
   4141 C           2.2492   18.9046   30.9109 C.3     1  UNL1        0.0000
   4142 C         -10.1199   17.0260   34.5651 C.3     1  UNL1        0.0000
   4143 C          -2.4822   11.8177   34.6674 C.3     1  UNL1        0.0000
   4144 C          -5.4876   23.9611   30.7785 C.3     1  UNL1        0.0000
   4145 C           3.1452   18.3003   31.9061 C.ar    1  UNL1        0.0000
   4146 C         -11.0518   17.6510   33.5881 C.ar    1  UNL1        0.0000
   4147 C          -1.5420   11.2034   33.7203 C.ar    1  UNL1        0.0000
   4148 C          -6.3774   24.6079   31.7783 C.ar    1  UNL1        0.0000
   4149 C           2.8964   18.3752   33.3125 C.ar    1  UNL1        0.0000
   4150 C         -10.8354   17.5311   32.2000 C.ar    1  UNL1        0.0000
   4151 C          -0.4125   10.4431   34.1733 C.ar    1  UNL1        0.0000
   4152 C          -7.4721   25.3808   31.3334 C.ar    1  UNL1        0.0000
   4153 C          -6.1229   24.4371   33.1332 C.ar    1  UNL1        0.0000
   4154 C          -1.7897   11.3355   32.3363 C.ar    1  UNL1        0.0000
   4155 C           4.2789   17.6013   31.4304 C.ar    1  UNL1        0.0000
   4156 C         -12.1520   18.3435   34.0868 C.ar    1  UNL1        0.0000
   4157 C           2.4609   15.8189   26.2239 C.ar    1  UNL1        0.0000
   4158 C          -4.0088   27.6105   26.2489 C.ar    1  UNL1        0.0000
   4159 C           4.9454   21.5820   26.0979 C.ar    1  UNL1        0.0000
   4160 C          -8.4130   23.1244   26.0785 C.ar    1  UNL1        0.0000
   4161 C          -2.8048   19.6474   31.7837 C.3     1  UNL1        0.0000
   4162 C          -7.5608   12.5530   33.7019 C.3     1  UNL1        0.0000
   4163 C           2.3251   17.2737   26.2007 C.3     1  UNL1        0.0000
   4164 C          -4.1016   26.1769   26.2114 C.3     1  UNL1        0.0000
   4165 C           3.6475   20.9652   26.1448 C.3     1  UNL1        0.0000
   4166 C          -7.0107   23.5388   26.1030 C.3     1  UNL1        0.0000
   4167 C           2.5003   15.1498   27.4536 C.ar    1  UNL1        0.0000
   4168 C          -8.6465   21.2501   38.1066 C.ar    1  UNL1        0.0000
   4169 C           5.6007   21.8568   27.3319 C.ar    1  UNL1        0.0000
   4170 C         -13.6807   15.8286   37.9451 C.ar    1  UNL1        0.0000
   4171 C           1.0050   14.7843   37.9595 C.ar    1  UNL1        0.0000
   4172 C          -9.1102   22.8940   27.2910 C.ar    1  UNL1        0.0000
   4173 C          -2.1572    8.0124   38.1087 C.ar    1  UNL1        0.0000
   4174 C          -3.9950   28.3617   27.4782 C.ar    1  UNL1        0.0000
   4175 N          -3.9400   27.7628   28.7164 N.pl3   1  UNL1        0.0000
   4176 N           0.4260   14.6014   36.7206 N.pl3   1  UNL1        0.0000
   4177 N           1.8155   19.0215   33.8438 N.pl3   1  UNL1        0.0000
   4178 N          -0.0815   10.2848   35.4907 N.pl3   1  UNL1        0.0000
   4179 O           1.0728   19.3097   31.2767 O.3     1  UNL1        0.0000
   4180 O          -9.3509   16.0752   34.1668 O.3     1  UNL1        0.0000
   4181 O          -2.1007   11.9422   35.8886 O.3     1  UNL1        0.0000
   4182 O          -5.5535   24.3908   29.5789 O.3     1  UNL1        0.0000
   4183 O          -4.7171   23.0039   31.1650 O.3     1  UNL1        0.0000
   4184 O          -3.6526   12.1862   34.2619 O.3     1  UNL1        0.0000
   4185 O           2.6610   18.9854   29.6991 O.3     1  UNL1        0.0000
   4186 O         -10.1619   17.4623   35.7648 O.3     1  UNL1        0.0000
   4187 O          -0.0115   18.7305   28.7001 O.3     1  UNL1        0.0000
   4188 O          -7.6577   16.5891   36.2652 O.3     1  UNL1        0.0000
   4189 O           0.9273   21.0178   29.1501 O.3     1  UNL1        0.0000
   4190 O          -9.4099   14.8644   36.7579 O.3     1  UNL1        0.0000
   4191 O          -4.8034   11.6565   36.8526 O.3     1  UNL1        0.0000
   4192 O          -3.0349   23.5519   29.0807 O.3     1  UNL1        0.0000
   4193 O          -3.8494   13.9180   36.3884 O.3     1  UNL1        0.0000
   4194 O          -4.7412   21.7948   28.5632 O.3     1  UNL1        0.0000
   4195 O          -2.4321   10.8022   38.1546 O.3     1  UNL1        0.0000
   4196 O          -4.1847   25.4755   27.3066 O.3     1  UNL1        0.0000
   4197 O          -1.6300   13.5904   38.1495 O.3     1  UNL1        0.0000
   4198 O          -6.4206   23.6398   27.2466 O.3     1  UNL1        0.0000
   4199 O           3.1082   20.6650   27.2928 O.3     1  UNL1        0.0000
   4200 O         -11.0461   16.7046   38.0806 O.3     1  UNL1        0.0000
   4201 O           2.3126   17.9107   27.3222 O.3     1  UNL1        0.0000
   4202 O          -8.7779   18.4869   38.1619 O.3     1  UNL1        0.0000
   4203 O          -1.8197   21.1220   29.2012 O.3     1  UNL1        0.0000
   4204 O          -6.5216   14.1181   36.1822 O.3     1  UNL1        0.0000
   4205 O           0.6344   19.8968   26.2684 O.3     1  UNL1        0.0000
   4206 O          -3.9332   22.9989   26.1016 O.3     1  UNL1        0.0000
   4207 H          -2.6947   15.9226   34.5887 H       1  UNL1        0.0000
   4208 H          -6.6164   10.1434   32.9412 H       1  UNL1        0.0000
   4209 H          -1.9365   24.8374   31.8136 H       1  UNL1        0.0000
   4210 H          -1.5865   17.6625   33.1581 H       1  UNL1        0.0000
   4211 H          -6.5303   17.7048   33.7757 H       1  UNL1        0.0000
   4212 H         -10.1143   12.6449   32.8395 H       1  UNL1        0.0000
   4213 H          -5.1579   15.9379   34.8445 H       1  UNL1        0.0000
   4214 H          -5.4162   19.4644   32.3795 H       1  UNL1        0.0000
   4215 H          -0.8328   22.6614   31.3733 H       1  UNL1        0.0000
   4216 H         -14.4262   22.8947   31.8157 H       1  UNL1        0.0000
   4217 C          -3.4395   18.6563   32.6805 C.ar    1  UNL1        0.0000
   4218 C          -4.6742   16.7030   34.2393 C.ar    1  UNL1        0.0000
   4219 C          -0.2616   23.4749   31.8211 C.ar    1  UNL1        0.0000
   4220 C          -8.2931   11.4984   32.9564 C.ar    1  UNL1        0.0000
   4221 C          -4.8355   18.6818   32.8623 C.ar    1  UNL1        0.0000
   4222 C          -3.2837   16.6883   34.0873 C.ar    1  UNL1        0.0000
   4223 C          -0.8877   24.7014   32.0720 C.ar    1  UNL1        0.0000
   4224 C          -7.6643   10.2707   32.6786 C.ar    1  UNL1        0.0000
   4225 C           1.0915   23.2886   32.1253 C.ar    1  UNL1        0.0000
   4226 C          -9.6465   11.6873   32.6213 C.ar    1  UNL1        0.0000
   4227 C          -2.6646   17.6604   33.3012 C.ar    1  UNL1        0.0000
   4228 C          -5.4507   17.6992   33.6354 C.ar    1  UNL1        0.0000
   4229 O          -1.5624   19.5109   31.4802 O.3     1  UNL1        0.0000
   4230 O          -8.1838   13.6322   34.0133 O.3     1  UNL1        0.0000
   4231 O          -6.3594   12.3125   34.0833 O.3     1  UNL1        0.0000
   4232 O          -3.5296   20.5907   31.3025 O.3     1  UNL1        0.0000
   4233 N          -0.4927   24.9363   51.3041 N.pl3  49  UNL49       0.0000
   4234 N          -0.0296   24.2041   53.3080 N.pl3  49  UNL49       0.0000
   4235 C           0.1275   23.7062   51.1544 C.2    49  UNL49       0.0000
   4236 C           0.4181   23.2481   52.4120 C.2    49  UNL49       0.0000
   4237 C           1.2851   25.2553   55.1504 C.3    49  UNL49       0.0000
   4238 C          -0.8674   25.8509   50.2186 C.3    49  UNL49       0.0000
   4239 C          -0.5731   25.2189   52.6138 C.3    49  UNL49       0.0000
   4240 C           0.2240   24.2275   54.7651 C.3    49  UNL49       0.0000
   4241 H           0.3841   23.3005   50.1855 H      49  UNL49       0.0000
   4242 H           0.9186   22.3462   52.7385 H      49  UNL49       0.0000
   4243 H           2.2464   25.0314   54.6753 H      49  UNL49       0.0000
   4244 H           0.0117   25.9967   49.5818 H      49  UNL49       0.0000
   4245 H           0.9952   26.2678   54.8434 H      49  UNL49       0.0000
   4246 H          -1.6877   25.4076   49.6487 H      49  UNL49       0.0000
   4247 H           1.4091   25.2427   56.2406 H      49  UNL49       0.0000
   4248 H           0.5433   23.2134   55.0379 H      49  UNL49       0.0000
   4249 H          -1.1613   26.8046   50.6635 H      49  UNL49       0.0000
   4250 H          -0.9450   26.1453   53.0273 H      49  UNL49       0.0000
   4251 H          -0.7377   24.4187   55.2542 H      49  UNL49       0.0000
   4252 N           2.3168   27.9691   50.8575 N.3    49  UNL49       0.0000
   4253 C           2.2030   29.3501   53.2691 C.3    49  UNL49       0.0000
   4254 C           4.5069   26.4634   51.0455 C.3    49  UNL49       0.0000
   4255 O           0.9707   30.0394   51.0305 O.2    49  UNL49       0.0000
   4256 O           0.1619   28.0264   52.2969 O.2    49  UNL49       0.0000
   4257 O           2.3422   25.6820   49.7893 O.2    49  UNL49       0.0000
   4258 O           2.2998   25.7882   52.2979 O.2    49  UNL49       0.0000
   4259 F           3.2338   30.1735   52.9622 F      49  UNL49       0.0000
   4260 F           4.9643   27.2507   52.0461 F      49  UNL49       0.0000
   4261 F           2.7096   28.2861   53.9482 F      49  UNL49       0.0000
   4262 F           1.3425   30.0142   54.0952 F      49  UNL49       0.0000
   4263 F           4.9948   26.9237   49.8573 F      49  UNL49       0.0000
   4264 F           4.9943   25.2086   51.2325 F      49  UNL49       0.0000
   4265 S           1.2693   28.8033   51.7357 S.O2   49  UNL49       0.0000
   4266 S           2.6454   26.4069   51.0217 S.O2   49  UNL49       0.0000
   4267 TI        -13.7940    9.6982   50.5068 Ti      1  UNL1        0.0000
   4268 TI         -2.9635   12.5794   41.1419 Ti      1  UNL1        0.0000
   4269 TI         -9.6973    5.7620   48.6868 Ti      1  UNL1        0.0000
   4270 TI         -8.1861   14.9241   42.9137 Ti      1  UNL1        0.0000
   4271 TI         -9.1847   16.6025   41.0094 Ti      1  UNL1        0.0000
   4272 TI         -7.8091    5.5077   50.6401 Ti      1  UNL1        0.0000
   4273 TI        -12.8448    7.9623   48.6153 Ti      1  UNL1        0.0000
   4274 TI         -4.9513   12.8820   42.9894 Ti      1  UNL1        0.0000
   4275 H         -13.2921   13.5953   50.2873 H      49  UNL49       0.0000
   4276 H          -2.1547    8.6734   41.4626 H       1  UNL1        0.0000
   4277 H         -17.7539    8.9416   50.1243 H      10  UNL10       0.0000
   4278 H           0.4186   14.5837   41.3426 H       1  UNL1        0.0000
   4279 H          -6.8335    1.4731   50.2542 H      49  UNL49       0.0000
   4280 H         -13.2432   16.0126   41.3314 H       1  UNL1        0.0000
   4281 H          -8.6902   14.9656   39.1363 H       1  UNL1        0.0000
   4282 H          -4.8390   12.3367   39.4420 H       1  UNL1        0.0000
   4283 H          -7.2992    4.8406   45.1290 H       1  UNL1        0.0000
   4284 H          -9.9096   16.7612   46.5327 H       1  UNL1        0.0000
   4285 H         -16.9174   11.3509   48.2594 H       1  UNL1        0.0000
   4286 H          -0.2088   10.4951   43.4479 H       1  UNL1        0.0000
   4287 H         -14.6163    9.9035   44.9255 H       1  UNL1        0.0000
   4288 H         -12.2848   18.4303   43.3626 H       1  UNL1        0.0000
   4289 H          -8.7925   19.7053   41.8648 H       1  UNL1        0.0000
   4290 H          -2.3126    6.6545   42.6651 H       1  UNL1        0.0000
   4291 H          -6.0935   14.6043   41.5751 H       1  UNL1        0.0000
   4292 H         -10.7780    7.6104   49.9804 H       1  UNL1        0.0000
   4293 H          -3.5744    7.4425   49.0298 H      49  UNL49       0.0000
   4294 H          -5.0555    6.9735   49.7771 H      49  UNL49       0.0000
   4295 H          -3.0002   11.8762   47.9309 H       1  UNL1        0.0000
   4296 H          -3.5700   12.2347   46.3124 H       1  UNL1        0.0000
   4297 H          -4.0632    2.4877   48.8398 H       1  UNL1        0.0000
   4298 H          -5.3423    3.5883   49.2972 H       1  UNL1        0.0000
   4299 C          -2.3855   11.8382   44.0055 C.3     1  UNL1        0.0000
   4300 C         -14.7545    9.9596   47.6597 C.3     1  UNL1        0.0000
   4301 C          -7.1168    4.7513   47.7621 C.3     1  UNL1        0.0000
   4302 C         -10.1222   16.8947   43.8731 C.3     1  UNL1        0.0000
   4303 C          -1.4895   11.2339   45.0007 C.ar    1  UNL1        0.0000
   4304 C         -15.6864   10.5846   46.6827 C.ar    1  UNL1        0.0000
   4305 C          -6.1766    4.1370   46.8149 C.ar    1  UNL1        0.0000
   4306 C         -11.0121   17.5415   44.8729 C.ar    1  UNL1        0.0000
   4307 C          -1.7382   11.3088   46.4071 C.ar    1  UNL1        0.0000
   4308 C         -15.4701   10.4646   45.2947 C.ar    1  UNL1        0.0000
   4309 C          -5.0472    3.3767   47.2679 C.ar    1  UNL1        0.0000
   4310 C         -12.1068   18.3144   44.4280 C.ar    1  UNL1        0.0000
   4311 C         -10.7576   17.3707   46.2278 C.ar    1  UNL1        0.0000
   4312 C          -6.4243    4.2691   45.4309 C.ar    1  UNL1        0.0000
   4313 C          -0.3558   10.5349   44.5250 C.ar    1  UNL1        0.0000
   4314 C         -16.7866   11.2770   47.1814 C.ar    1  UNL1        0.0000
   4315 C          -2.1737    8.7524   39.3185 C.ar    1  UNL1        0.0000
   4316 C          -8.6434   20.5440   39.3435 C.ar    1  UNL1        0.0000
   4317 C           0.3107   14.5156   39.1925 C.ar    1  UNL1        0.0000
   4318 C         -13.0476   16.0580   39.1731 C.ar    1  UNL1        0.0000
   4319 C          -7.4394   12.5810   44.8783 C.3     1  UNL1        0.0000
   4320 C         -12.1955    5.4866   46.7965 C.3     1  UNL1        0.0000
   4321 C          -2.3096   10.2073   39.2953 C.3     1  UNL1        0.0000
   4322 C          -8.7362   19.1105   39.3061 C.3     1  UNL1        0.0000
   4323 C          -0.9871   13.8987   39.2394 C.3     1  UNL1        0.0000
   4324 C         -11.6453   16.4723   39.1976 C.3     1  UNL1        0.0000
   4325 C          -2.1344    8.0833   40.5482 C.ar    1  UNL1        0.0000
   4326 C         -13.2812   14.1837   51.2012 C.2    49  UNL49       0.0000
   4327 C           0.9660   14.7904   40.4265 C.ar    1  UNL1        0.0000
   4328 C         -18.3154    8.7622   51.0397 C.2    10  UNL10       0.0000
   4329 C          -3.6296    7.7178   51.0542 C.2    49  UNL49       0.0000
   4330 C         -13.7448   15.8276   40.3856 C.ar    1  UNL1        0.0000
   4331 C          -6.7919    0.9460   51.2033 C.2    49  UNL49       0.0000
   4332 C          -8.6297   21.2952   40.5728 C.ar    1  UNL1        0.0000
   4333 N          -8.5746   20.6964   41.8110 N.pl3   1  UNL1        0.0000
   4334 N          -4.2087    7.5350   49.8152 N.pl3  49  UNL49       0.0000
   4335 N          -2.8191   11.9550   46.9384 N.pl3   1  UNL1        0.0000
   4336 N          -4.7161    3.2184   48.5853 N.pl3   1  UNL1        0.0000
   4337 O          -3.5618   12.2433   44.3713 O.3     1  UNL1        0.0000
   4338 O         -13.9856    9.0087   47.2614 O.3     1  UNL1        0.0000
   4339 O          -6.7354    4.8758   48.9832 O.3     1  UNL1        0.0000
   4340 O         -10.1881   17.3243   42.6735 O.3     1  UNL1        0.0000
   4341 O          -9.3518   15.9374   44.2596 O.3     1  UNL1        0.0000
   4342 O          -8.2872    5.1197   47.3565 O.3     1  UNL1        0.0000
   4343 O          -1.9736   11.9189   42.7937 O.3     1  UNL1        0.0000
   4344 O         -14.7966   10.3958   48.8594 O.3     1  UNL1        0.0000
   4345 O          -4.6461   11.6641   41.7947 O.3     1  UNL1        0.0000
   4346 O         -12.2923    9.5227   49.3598 O.3     1  UNL1        0.0000
   4347 O          -3.7073   13.9514   42.2447 O.3     1  UNL1        0.0000
   4348 O         -14.0445    7.7980   49.8525 O.3     1  UNL1        0.0000
   4349 O          -9.4380    4.5900   49.9472 O.3     1  UNL1        0.0000
   4350 O          -7.6696   16.4855   42.1753 O.3     1  UNL1        0.0000
   4351 O          -8.4841    6.8515   49.4830 O.3     1  UNL1        0.0000
   4352 O          -9.3758   14.7283   41.6578 O.3     1  UNL1        0.0000
   4353 O          -7.0668    3.7358   51.2493 O.3     1  UNL1        0.0000
   4354 O          -8.8193   18.4091   40.4013 O.3     1  UNL1        0.0000
   4355 O          -6.2646    6.5240   51.2441 O.3     1  UNL1        0.0000
   4356 O         -11.0552   16.5733   40.3412 O.3     1  UNL1        0.0000
   4357 O          -1.5264   13.5985   40.3874 O.3     1  UNL1        0.0000
   4358 O         -15.6808    9.6382   51.1752 O.3     1  UNL1        0.0000
   4359 O          -2.3220   10.8442   40.4168 O.3     1  UNL1        0.0000
   4360 O         -13.4126   11.4205   51.2565 O.3     1  UNL1        0.0000
   4361 O          -6.4543   14.0555   42.2958 O.3     1  UNL1        0.0000
   4362 O         -11.1563    7.0517   49.2768 O.3     1  UNL1        0.0000
   4363 O          -4.0002   12.8304   39.3630 O.3     1  UNL1        0.0000
   4364 O          -8.5679   15.9324   39.1962 O.3     1  UNL1        0.0000
   4365 H          -7.3294    8.8562   47.6833 H       1  UNL1        0.0000
   4366 H         -11.2510    3.0770   46.0358 H       1  UNL1        0.0000
   4367 H          -6.5711   17.7709   44.9082 H       1  UNL1        0.0000
   4368 H          -6.2212   10.5960   46.2527 H       1  UNL1        0.0000
   4369 H         -11.1650   10.6384   46.8703 H       1  UNL1        0.0000
   4370 H         -14.7489    5.5784   45.9342 H       1  UNL1        0.0000
   4371 H          -9.7925    8.8715   47.9391 H       1  UNL1        0.0000
   4372 H         -10.0508   12.3979   45.4741 H       1  UNL1        0.0000
   4373 H          -5.4674   15.5949   44.4679 H       1  UNL1        0.0000
   4374 H         -19.0609   15.8283   44.9103 H       1  UNL1        0.0000
   4375 C          -8.0741   11.5899   45.7751 C.ar    1  UNL1        0.0000
   4376 C          -9.3088    9.6366   47.3340 C.ar    1  UNL1        0.0000
   4377 C          -4.8963   16.4085   44.9157 C.ar    1  UNL1        0.0000
   4378 C         -12.9277    4.4319   46.0510 C.ar    1  UNL1        0.0000
   4379 C          -9.4702   11.6154   45.9569 C.ar    1  UNL1        0.0000
   4380 C          -7.9184    9.6219   47.1819 C.ar    1  UNL1        0.0000
   4381 C          -5.5224   17.6349   45.1667 C.ar    1  UNL1        0.0000
   4382 C         -12.2990    3.2043   45.7732 C.ar    1  UNL1        0.0000
   4383 C          -3.5431   16.2222   45.2199 C.ar    1  UNL1        0.0000
   4384 C         -14.2812    4.6209   45.7159 C.ar    1  UNL1        0.0000
   4385 C          -7.2993   10.5939   46.3958 C.ar    1  UNL1        0.0000
   4386 C         -10.0854   10.6327   46.7300 C.ar    1  UNL1        0.0000
   4387 O          -6.1970   12.4444   44.5748 O.3     1  UNL1        0.0000
   4388 O         -12.8184    6.5657   47.1079 O.3     1  UNL1        0.0000
   4389 O         -10.9941    5.2460   47.1779 O.3     1  UNL1        0.0000
   4390 O          -8.1643   13.5242   44.3971 O.3     1  UNL1        0.0000
   4391 N          -5.1273   17.8699   64.3987 N.pl3  49  UNL49       0.0000
   4392 N          -4.6643   17.1377   66.4026 N.pl3  49  UNL49       0.0000
   4393 C          -4.5071   16.6398   64.2490 C.2    49  UNL49       0.0000
   4394 C          -4.2166   16.1816   65.5066 C.2    49  UNL49       0.0000
   4395 C          -3.3496   18.1888   68.2450 C.3    49  UNL49       0.0000
   4396 C          -5.5021   18.7845   63.3132 C.3    49  UNL49       0.0000
   4397 C          -5.2078   18.1524   65.7084 C.3    49  UNL49       0.0000
   4398 C          -4.4106   17.1611   67.8598 C.3    49  UNL49       0.0000
   4399 H          -4.2505   16.2341   63.2801 H      49  UNL49       0.0000
   4400 H          -3.7160   15.2797   65.8332 H      49  UNL49       0.0000
   4401 H          -2.3883   17.9650   67.7699 H      49  UNL49       0.0000
   4402 H          -4.6230   18.9302   62.6764 H      49  UNL49       0.0000
   4403 H          -3.6394   19.2013   67.9380 H      49  UNL49       0.0000
   4404 H          -6.3223   18.3411   62.7434 H      49  UNL49       0.0000
   4405 H          -3.2255   18.1763   69.3352 H      49  UNL49       0.0000
   4406 H          -4.0913   16.1470   68.1325 H      49  UNL49       0.0000
   4407 H          -5.7959   19.7382   63.7581 H      49  UNL49       0.0000
   4408 H          -5.5796   19.0788   66.1219 H      49  UNL49       0.0000
   4409 H          -5.3723   17.3522   68.3488 H      49  UNL49       0.0000
   4410 N          -2.3179   20.9026   63.9521 N.3    49  UNL49       0.0000
   4411 C          -2.4316   22.2837   66.3637 C.3    49  UNL49       0.0000
   4412 C          -0.1277   19.3969   64.1401 C.3    49  UNL49       0.0000
   4413 O          -3.6640   22.9730   64.1251 O.2    49  UNL49       0.0000
   4414 O          -4.4727   20.9600   65.3915 O.2    49  UNL49       0.0000
   4415 O          -2.2924   18.6155   62.8839 O.2    49  UNL49       0.0000
   4416 O          -2.3348   18.7217   65.3925 O.2    49  UNL49       0.0000
   4417 F          -1.4008   23.1071   66.0568 F      49  UNL49       0.0000
   4418 F           0.3296   20.1843   65.1407 F      49  UNL49       0.0000
   4419 F          -1.9251   21.2197   67.0428 F      49  UNL49       0.0000
   4420 F          -3.2921   22.9477   67.1898 F      49  UNL49       0.0000
   4421 F           0.3602   19.8573   62.9519 F      49  UNL49       0.0000
   4422 F           0.3596   18.1422   64.3271 F      49  UNL49       0.0000
   4423 S          -3.3653   21.7369   64.8303 S.O2   49  UNL49       0.0000
   4424 S          -1.9893   19.3404   64.1163 S.O2   49  UNL49       0.0000
   4425 TI         -6.4071   45.5100   11.1664 Ti      1  UNL1        0.0000
   4426 TI          4.4234   48.3912    1.8016 Ti      1  UNL1        0.0000
   4427 TI         -2.3104   41.5738    9.3464 Ti      1  UNL1        0.0000
   4428 TI         -0.7992   50.7360    3.5734 Ti      1  UNL1        0.0000
   4429 TI         -1.7978   52.4143    1.6690 Ti      1  UNL1        0.0000
   4430 TI         -0.4222   41.3195   11.2998 Ti      1  UNL1        0.0000
   4431 TI         -5.4579   43.7741    9.2749 Ti      1  UNL1        0.0000
   4432 TI          2.4356   48.6938    3.6491 Ti      1  UNL1        0.0000
   4433 H          -5.9052   49.4071   10.9470 H       1  UNL1        0.0000
   4434 H           5.2322   44.4852    2.1223 H       1  UNL1        0.0000
   4435 H         -10.3670   44.7534   10.7840 H       1  UNL1        0.0000
   4436 H           7.8055   50.3955    2.0023 H       1  UNL1        0.0000
   4437 H           0.5534   37.2849   10.9139 H       1  UNL1        0.0000
   4438 H          -5.8563   51.8244    1.9911 H       1  UNL1        0.0000
   4439 H          -1.3033   50.7775   -0.2041 H       1  UNL1        0.0000
   4440 H           2.5479   48.1485    0.1017 H       1  UNL1        0.0000
   4441 H           0.0877   40.6524    5.7887 H       1  UNL1        0.0000
   4442 H          -2.5226   52.5730    7.1924 H       1  UNL1        0.0000
   4443 H          -9.5305   47.1628    8.9190 H       1  UNL1        0.0000
   4444 H           7.1781   46.3069    4.1076 H       1  UNL1        0.0000
   4445 H          -7.2294   45.7153    5.5852 H       1  UNL1        0.0000
   4446 H          -4.8979   54.2421    4.0223 H       1  UNL1        0.0000
   4447 H          -1.4055   55.5171    2.5245 H       1  UNL1        0.0000
   4448 H           5.0743   42.4663    3.3248 H       1  UNL1        0.0000
   4449 H           1.2934   50.4161    2.2348 H       1  UNL1        0.0000
   4450 H          -3.3911   43.4222   10.6401 H       1  UNL1        0.0000
   4451 H           3.8125   43.2543    9.6895 H       1  UNL1        0.0000
   4452 H           2.3314   42.7853   10.4368 H       1  UNL1        0.0000
   4453 H           4.3867   47.6880    8.5906 H       1  UNL1        0.0000
   4454 H           3.8169   48.0466    6.9720 H       1  UNL1        0.0000
   4455 H           3.3237   38.2995    9.4994 H       1  UNL1        0.0000
   4456 H           2.0446   39.4001    9.9568 H       1  UNL1        0.0000
   4457 C           5.0014   47.6500    4.6651 C.3     1  UNL1        0.0000
   4458 C          -7.3676   45.7714    8.3194 C.3     1  UNL1        0.0000
   4459 C           0.2701   40.5631    8.4217 C.3     1  UNL1        0.0000
   4460 C          -2.7353   52.7065    4.5328 C.3     1  UNL1        0.0000
   4461 C           5.8974   47.0457    5.6603 C.ar    1  UNL1        0.0000
   4462 C          -8.2995   46.3964    7.3423 C.ar    1  UNL1        0.0000
   4463 C           1.2103   39.9488    7.4745 C.ar    1  UNL1        0.0000
   4464 C          -3.6251   53.3533    5.5326 C.2     1  UNL1        0.0000
   4465 C           5.6487   47.1206    7.0667 C.ar    1  UNL1        0.0000
   4466 C          -8.0831   46.2764    5.9543 C.ar    1  UNL1        0.0000
   4467 C           2.3398   39.1885    7.9276 C.ar    1  UNL1        0.0000
   4468 C          -4.7199   54.1262    5.0876 C.3     1  UNL1        0.0000
   4469 C          -3.3707   53.1825    6.8874 C.2     1  UNL1        0.0000
   4470 C           0.9626   40.0809    6.0906 C.ar    1  UNL1        0.0000
   4471 C           7.0311   46.3467    5.1846 C.ar    1  UNL1        0.0000
   4472 C          -9.3997   47.0888    7.8410 C.ar    1  UNL1        0.0000
   4473 C           5.2132   44.5643   -0.0218 C.2     1  UNL1        0.0000
   4474 C          -1.2565   56.3558    0.0032 C.2     1  UNL1        0.0000
   4475 C           7.6976   50.3274   -0.1478 C.2     1  UNL1        0.0000
   4476 C          -5.6607   51.8698   -0.1672 C.2     1  UNL1        0.0000
   4477 C          -0.0525   48.3928    5.5380 C.3     1  UNL1        0.0000
   4478 C          -4.8086   41.2984    7.4561 C.3     1  UNL1        0.0000
   4479 C           5.0773   46.0191   -0.0450 C.2     1  UNL1        0.0000
   4480 C          -1.3493   54.9223   -0.0343 C.2     1  UNL1        0.0000
   4481 C           6.3998   49.7105   -0.1010 C.2     1  UNL1        0.0000
   4482 C          -4.2584   52.2842   -0.1427 C.2     1  UNL1        0.0000
   4483 C           5.2525   43.8951    1.2079 C.2     1  UNL1        0.0000
   4484 C          -5.8943   49.9955   11.8609 C.3     1  UNL1        0.0000
   4485 C           8.3529   50.6022    1.0861 C.2     1  UNL1        0.0000
   4486 C         -10.9285   44.5740   11.6993 C.ar    1  UNL1        0.0000
   4487 C           3.7573   43.5297   11.7138 C.ar    1  UNL1        0.0000
   4488 C          -6.3579   51.6394    1.0453 C.2     1  UNL1        0.0000
   4489 C           0.5950   36.7578   11.8629 C.ar    1  UNL1        0.0000
   4490 C          -1.2428   57.1070    1.2325 C.3     1  UNL1        0.0000
   4491 N          -1.1877   56.5082    2.4706 N.3     1  UNL1        0.0000
   4492 N           3.1783   43.3468   10.4748 N.pl3   1  UNL1        0.0000
   4493 N           4.5678   47.7668    7.5980 N.pl3   1  UNL1        0.0000
   4494 N           2.6708   39.0302    9.2450 N.pl3   1  UNL1        0.0000
   4495 O           3.8251   48.0551    5.0309 O.3     1  UNL1        0.0000
   4496 O          -6.5986   44.8205    7.9211 O.3     1  UNL1        0.0000
   4497 O           0.6516   40.6876    9.6428 O.3     1  UNL1        0.0000
   4498 O          -2.8012   53.1361    3.3332 O.3     1  UNL1        0.0000
   4499 O          -1.9649   51.7493    4.9192 O.3     1  UNL1        0.0000
   4500 O          -0.9003   40.9316    8.0162 O.3     1  UNL1        0.0000
   4501 O           5.4133   47.7308    3.4534 O.3     1  UNL1        0.0000
   4502 O          -7.4097   46.2077    9.5191 O.3     1  UNL1        0.0000
   4503 O           2.7408   47.4759    2.4544 O.3     1  UNL1        0.0000
   4504 O          -4.9054   45.3345   10.0195 O.3     1  UNL1        0.0000
   4505 O           3.6796   49.7632    2.9043 O.3     1  UNL1        0.0000
   4506 O          -6.6576   43.6098   10.5121 O.3     1  UNL1        0.0000
   4507 O          -2.0511   40.4019   10.6068 O.3     1  UNL1        0.0000
   4508 O          -0.2827   52.2973    2.8349 O.3     1  UNL1        0.0000
   4509 O          -1.0971   42.6634   10.1427 O.3     1  UNL1        0.0000
   4510 O          -1.9889   50.5402    2.3175 O.3     1  UNL1        0.0000
   4511 O           0.3201   39.5476   11.9089 O.3     1  UNL1        0.0000
   4512 O          -1.4324   54.2209    1.0609 O.2     1  UNL1        0.0000
   4513 O           1.1223   42.3358   11.9038 O.3     1  UNL1        0.0000
   4514 O          -3.6683   52.3852    1.0008 O.2     1  UNL1        0.0000
   4515 O           5.8605   49.4104    1.0470 O.2     1  UNL1        0.0000
   4516 O          -8.2939   45.4500   11.8349 O.3     1  UNL1        0.0000
   4517 O           5.0649   46.6560    1.0764 O.2     1  UNL1        0.0000
   4518 O          -6.0257   47.2323   11.9161 O.2     1  UNL1        0.0000
   4519 O           0.9326   49.8673    2.9554 O.3     1  UNL1        0.0000
   4520 O          -3.7694   42.8635    9.9365 O.3     1  UNL1        0.0000
   4521 O           3.3867   48.6422    0.0226 O.3     1  UNL1        0.0000
   4522 O          -1.1810   51.7443   -0.1441 O.3     1  UNL1        0.0000
   4523 H           0.0576   44.6680    8.3430 H       1  UNL1        0.0000
   4524 H          -3.8641   38.8888    6.6954 H       1  UNL1        0.0000
   4525 H           0.8158   53.5828    5.5679 H      49  UNL49       0.0000
   4526 H           1.1657   46.4078    6.9123 H       1  UNL1        0.0000
   4527 H          -3.7781   46.4502    7.5299 H       1  UNL1        0.0000
   4528 H          -7.3620   41.3902    6.5938 H       1  UNL1        0.0000
   4529 H          -2.4056   44.6833    8.5987 H       1  UNL1        0.0000
   4530 H          -2.6639   48.2098    6.1338 H       1  UNL1        0.0000
   4531 H           1.9195   51.4068    5.1276 H      49  UNL49       0.0000
   4532 H         -11.6740   51.6401    5.5699 H      11  UNL11       0.0000
   4533 C          -0.6872   47.4017    6.4347 C.ar    1  UNL1        0.0000
   4534 C          -1.9219   45.4484    7.9936 C.ar    1  UNL1        0.0000
   4535 C           2.4906   52.2203    5.5753 C.2    49  UNL49       0.0000
   4536 C          -5.5408   40.2437    6.7107 C.ar    1  UNL1        0.0000
   4537 C          -2.0833   47.4272    6.6166 C.ar    1  UNL1        0.0000
   4538 C          -0.5315   45.4337    7.8415 C.ar    1  UNL1        0.0000
   4539 C           1.8645   53.4468    5.8263 C.3    49  UNL49       0.0000
   4540 C          -4.9121   39.0161    6.4329 C.ar    1  UNL1        0.0000
   4541 C           3.8438   52.0340    5.8796 C.2    49  UNL49       0.0000
   4542 C          -6.8943   40.4327    6.3756 C.ar    1  UNL1        0.0000
   4543 C           0.0876   46.4057    7.0555 C.ar    1  UNL1        0.0000
   4544 C          -2.6985   46.4445    7.3896 C.ar    1  UNL1        0.0000
   4545 O           1.1899   48.2562    5.2344 O.3     1  UNL1        0.0000
   4546 O          -5.4315   42.3775    7.7676 O.3     1  UNL1        0.0000
   4547 O          -3.6072   41.0579    7.8376 O.3     1  UNL1        0.0000
   4548 O          -0.7774   49.3361    5.0567 O.3     1  UNL1        0.0000
   4549 N           2.2596   53.6817   25.0584 N.pl3  49  UNL49       0.0000
   4550 N           2.7226   52.9495   27.0623 N.pl3  49  UNL49       0.0000
   4551 C           2.8798   52.4516   24.9086 C.2    49  UNL49       0.0000
   4552 C           3.1703   51.9934   26.1663 C.2    49  UNL49       0.0000
   4553 C           4.0373   54.0007   28.9046 C.3    49  UNL49       0.0000
   4554 C           1.8848   54.5963   23.9728 C.3    49  UNL49       0.0000
   4555 C           2.1791   53.9642   26.3680 C.3    49  UNL49       0.0000
   4556 C           2.9763   52.9729   28.5194 C.3    49  UNL49       0.0000
   4557 H           3.1364   52.0459   23.9398 H      49  UNL49       0.0000
   4558 H           3.6709   51.0916   26.4928 H      49  UNL49       0.0000
   4559 H           4.9987   53.7768   28.4295 H      49  UNL49       0.0000
   4560 H           2.7639   54.7421   23.3361 H      49  UNL49       0.0000
   4561 H           3.7475   55.0131   28.5976 H      49  UNL49       0.0000
   4562 H           1.0646   54.1530   23.4030 H      49  UNL49       0.0000
   4563 H           4.1614   53.9881   29.9949 H      49  UNL49       0.0000
   4564 H           3.2956   51.9588   28.7922 H      49  UNL49       0.0000
   4565 H           1.5910   55.5500   24.4178 H      49  UNL49       0.0000
   4566 H           1.8073   54.8907   26.7816 H      49  UNL49       0.0000
   4567 H           2.0146   53.1640   29.0085 H      49  UNL49       0.0000
   4568 N           5.0690   56.7144   24.6118 N.3    49  UNL49       0.0000
   4569 C           4.9553   58.0955   27.0234 C.3    49  UNL49       0.0000
   4570 C           7.2592   55.2087   24.7997 C.3    49  UNL49       0.0000
   4571 O           3.7229   58.7848   24.7847 O.2    49  UNL49       0.0000
   4572 O           2.9142   56.7718   26.0512 O.2    49  UNL49       0.0000
   4573 O           5.0945   54.4273   23.5436 O.2    49  UNL49       0.0000
   4574 O           5.0521   54.5336   26.0522 O.2    49  UNL49       0.0000
   4575 F           5.9861   58.9189   26.7165 F      49  UNL49       0.0000
   4576 F           7.7165   55.9961   25.8004 F      49  UNL49       0.0000
   4577 F           5.4618   57.0315   27.7025 F      49  UNL49       0.0000
   4578 F           4.0948   58.7595   27.8495 F      49  UNL49       0.0000
   4579 F           7.7471   55.6691   23.6116 F      49  UNL49       0.0000
   4580 F           7.7466   53.9540   24.9868 F      49  UNL49       0.0000
   4581 S           4.0216   57.5487   25.4899 S.O2   49  UNL49       0.0000
   4582 S           5.3976   55.1523   24.7759 S.O2   49  UNL49       0.0000
   4583 TI        -11.0417   38.4436   24.2610 Ti      1  UNL1        0.0000
   4584 TI         -0.2113   41.3248   14.8962 Ti      1  UNL1        0.0000
   4585 TI         -6.9450   34.5074   22.4410 Ti      1  UNL1        0.0000
   4586 TI         -5.4339   43.6695   16.6680 Ti      1  UNL1        0.0000
   4587 TI         -6.4324   45.3478   14.7636 Ti      1  UNL1        0.0000
   4588 TI         -5.0568   34.2530   24.3944 Ti      1  UNL1        0.0000
   4589 TI        -10.0925   36.7077   22.3695 Ti      1  UNL1        0.0000
   4590 TI         -2.1991   41.6274   16.7437 Ti      1  UNL1        0.0000
   4591 H         -10.5399   42.3407   24.0416 H       1  UNL1        0.0000
   4592 H           0.5975   37.4188   15.2169 H       1  UNL1        0.0000
   4593 H         -15.0016   37.6870   23.8786 H       1  UNL1        0.0000
   4594 H           3.1709   43.3291   15.0969 H       1  UNL1        0.0000
   4595 H          -4.0812   30.2185   24.0085 H       1  UNL1        0.0000
   4596 H         -10.4910   44.7579   15.0857 H       1  UNL1        0.0000
   4597 H          -5.9380   43.7110   12.8905 H       1  UNL1        0.0000
   4598 H          -2.0868   41.0821   13.1963 H       1  UNL1        0.0000
   4599 H          -4.5469   33.5859   18.8833 H       1  UNL1        0.0000
   4600 H          -7.1573   45.5065   20.2870 H       1  UNL1        0.0000
   4601 H         -14.1652   40.0963   22.0136 H       1  UNL1        0.0000
   4602 H           2.5435   39.2405   17.2022 H       1  UNL1        0.0000
   4603 H         -11.8640   38.6489   18.6798 H       1  UNL1        0.0000
   4604 H          -9.5325   47.1757   17.1169 H       1  UNL1        0.0000
   4605 H          -6.0402   48.4507   15.6191 H       1  UNL1        0.0000
   4606 H           0.4397   35.3999   16.4194 H       1  UNL1        0.0000
   4607 H          -3.3412   43.3497   15.3294 H       1  UNL1        0.0000
   4608 H          -8.0257   36.3558   23.7347 H       1  UNL1        0.0000
   4609 H          -0.8221   36.1879   22.7841 H       1  UNL1        0.0000
   4610 H          -2.3032   35.7188   23.5314 H       1  UNL1        0.0000
   4611 H          -0.2480   40.6215   21.6852 H       1  UNL1        0.0000
   4612 H          -0.8177   40.9801   20.0666 H       1  UNL1        0.0000
   4613 H          -1.3109   31.2331   22.5940 H       1  UNL1        0.0000
   4614 H          -2.5901   32.3337   23.0514 H       1  UNL1        0.0000
   4615 C           0.3668   40.5836   17.7597 C.3     1  UNL1        0.0000
   4616 C         -12.0023   38.7050   21.4140 C.3     1  UNL1        0.0000
   4617 C          -4.3645   33.4967   21.5163 C.3     1  UNL1        0.0000
   4618 C          -7.3700   45.6400   17.6274 C.3     1  UNL1        0.0000
   4619 C           1.2628   39.9793   18.7549 C.ar    1  UNL1        0.0000
   4620 C         -12.9342   39.3300   20.4369 C.ar    1  UNL1        0.0000
   4621 C          -3.4243   32.8823   20.5691 C.ar    1  UNL1        0.0000
   4622 C          -8.2598   46.2868   18.6272 C.2     1  UNL1        0.0000
   4623 C           1.0140   40.0542   20.1614 C.ar    1  UNL1        0.0000
   4624 C         -12.7178   39.2100   19.0489 C.ar    1  UNL1        0.0000
   4625 C          -2.2949   32.1220   21.0222 C.ar    1  UNL1        0.0000
   4626 C          -9.3545   47.0598   18.1822 C.3     1  UNL1        0.0000
   4627 C          -8.0053   46.1161   19.9820 C.2     1  UNL1        0.0000
   4628 C          -3.6721   33.0145   19.1852 C.ar    1  UNL1        0.0000
   4629 C           2.3965   39.2803   18.2792 C.ar    1  UNL1        0.0000
   4630 C         -14.0343   40.0224   20.9356 C.ar    1  UNL1        0.0000
   4631 C           0.5785   37.4978   13.0728 C.ar    1  UNL1        0.0000
   4632 C          -5.8912   49.2894   13.0978 C.2     1  UNL1        0.0000
   4633 C           3.0630   43.2609   12.9468 C.ar    1  UNL1        0.0000
   4634 C         -10.2953   44.8034   12.9274 C.ar    1  UNL1        0.0000
   4635 C          -4.6871   41.3263   18.6326 C.3     1  UNL1        0.0000
   4636 C          -9.4432   34.2320   20.5507 C.3     1  UNL1        0.0000
   4637 C           0.4427   38.9527   13.0496 C.3     1  UNL1        0.0000
   4638 C          -5.9839   47.8559   13.0603 C.2     1  UNL1        0.0000
   4639 C           1.7652   42.6441   12.9937 C.3     1  UNL1        0.0000
   4640 C          -8.8930   45.2177   12.9519 C.3     1  UNL1        0.0000
   4641 C           0.6179   36.8287   14.3025 C.ar    1  UNL1        0.0000
   4642 C         -10.5289   42.9291   24.9555 C.3     1  UNL1        0.0000
   4643 C           3.7183   43.5357   14.1808 C.ar    1  UNL1        0.0000
   4644 C         -15.5631   37.5076   24.7939 C.ar    1  UNL1        0.0000
   4645 C          -0.8774   36.4632   24.8084 C.ar    1  UNL1        0.0000
   4646 C         -10.9925   44.5730   14.1399 C.ar    1  UNL1        0.0000
   4647 C          -4.0396   29.6913   24.9575 C.ar    1  UNL1        0.0000
   4648 C          -5.8774   50.0406   14.3271 C.3     1  UNL1        0.0000
   4649 N          -5.8223   49.4418   15.5653 N.3     1  UNL1        0.0000
   4650 N          -1.4564   36.2804   23.5695 N.pl3   1  UNL1        0.0000
   4651 N          -0.0668   40.7004   20.6926 N.pl3   1  UNL1        0.0000
   4652 N          -1.9639   31.9638   22.3396 N.pl3   1  UNL1        0.0000
   4653 O          -0.8095   40.9887   18.1255 O.3     1  UNL1        0.0000
   4654 O         -11.2333   37.7541   21.0157 O.3     1  UNL1        0.0000
   4655 O          -3.9831   33.6212   22.7374 O.3     1  UNL1        0.0000
   4656 O          -7.4358   46.0697   16.4278 O.3     1  UNL1        0.0000
   4657 O          -6.5995   44.6828   18.0138 O.3     1  UNL1        0.0000
   4658 O          -5.5350   33.8651   21.1108 O.3     1  UNL1        0.0000
   4659 O           0.7787   40.6643   16.5480 O.3     1  UNL1        0.0000
   4660 O         -12.0443   39.1412   22.6137 O.3     1  UNL1        0.0000
   4661 O          -1.8939   40.4094   15.5490 O.3     1  UNL1        0.0000
   4662 O          -9.5401   38.2681   23.1141 O.3     1  UNL1        0.0000
   4663 O          -0.9551   42.6967   15.9990 O.3     1  UNL1        0.0000
   4664 O         -11.2923   36.5434   23.6067 O.3     1  UNL1        0.0000
   4665 O          -6.6857   33.3354   23.7015 O.3     1  UNL1        0.0000
   4666 O          -4.9173   45.2308   15.9295 O.3     1  UNL1        0.0000
   4667 O          -5.7318   35.5969   23.2373 O.3     1  UNL1        0.0000
   4668 O          -6.6235   43.4737   15.4121 O.3     1  UNL1        0.0000
   4669 O          -4.3145   32.4812   25.0035 O.3     1  UNL1        0.0000
   4670 O          -6.0670   47.1545   14.1555 O.2     1  UNL1        0.0000
   4671 O          -3.5124   35.2694   24.9984 O.3     1  UNL1        0.0000
   4672 O          -8.3030   45.3187   14.0954 O.3     1  UNL1        0.0000
   4673 O           1.2258   42.3439   14.1416 O.3     1  UNL1        0.0000
   4674 O         -12.9285   38.3835   24.9295 O.3     1  UNL1        0.0000
   4675 O           0.4302   39.5896   14.1711 O.3     1  UNL1        0.0000
   4676 O         -10.6603   40.1659   25.0107 O.2     1  UNL1        0.0000
   4677 O          -3.7021   42.8009   16.0501 O.3     1  UNL1        0.0000
   4678 O          -8.4040   35.7971   23.0311 O.3     1  UNL1        0.0000
   4679 O          -1.2480   41.5758   13.1173 O.3     1  UNL1        0.0000
   4680 O          -5.8156   44.6778   12.9505 O.3     1  UNL1        0.0000
   4681 H          -4.5771   37.6016   21.4376 H       1  UNL1        0.0000
   4682 H          -8.4987   31.8224   19.7901 H       1  UNL1        0.0000
   4683 H          -3.8189   46.5163   18.6625 H      49  UNL49       0.0000
   4684 H          -3.4689   39.3414   20.0069 H       1  UNL1        0.0000
   4685 H          -8.4127   39.3838   20.6245 H       1  UNL1        0.0000
   4686 H         -11.9967   34.3238   19.6884 H       1  UNL1        0.0000
   4687 H          -7.0402   37.6169   21.6933 H       1  UNL1        0.0000
   4688 H          -7.2986   41.1433   19.2284 H       1  UNL1        0.0000
   4689 H          -2.7151   44.3403   18.2222 H      49  UNL49       0.0000
   4690 H         -16.3086   44.5737   18.6645 H      49  UNL49       0.0000
   4691 C          -5.3218   40.3352   19.5294 C.ar    1  UNL1        0.0000
   4692 C          -6.5566   38.3820   21.0882 C.ar    1  UNL1        0.0000
   4693 C          -2.1440   45.1538   18.6699 C.2    49  UNL49       0.0000
   4694 C         -10.1755   33.1773   19.8053 C.ar    1  UNL1        0.0000
   4695 C          -6.7179   40.3608   19.7112 C.ar    1  UNL1        0.0000
   4696 C          -5.1661   38.3673   20.9361 C.ar    1  UNL1        0.0000
   4697 C          -2.7701   46.3803   18.9209 C.3    49  UNL49       0.0000
   4698 C          -9.5467   31.9497   19.5275 C.ar    1  UNL1        0.0000
   4699 C          -0.7909   44.9676   18.9742 C.2    49  UNL49       0.0000
   4700 C         -11.5289   33.3663   19.4702 C.ar    1  UNL1        0.0000
   4701 C          -4.5470   39.3393   20.1501 C.ar    1  UNL1        0.0000
   4702 C          -7.3331   39.3781   20.4842 C.ar    1  UNL1        0.0000
   4703 O          -3.4448   41.1898   18.3290 O.3     1  UNL1        0.0000
   4704 O         -10.0661   35.3111   20.8622 O.3     1  UNL1        0.0000
   4705 O          -8.2418   33.9914   20.9322 O.3     1  UNL1        0.0000
   4706 O          -5.4120   42.2696   18.1513 O.3     1  UNL1        0.0000
   4707 N          -2.3751   46.6153   38.1530 N.pl3  49  UNL49       0.0000
   4708 N          -1.9120   45.8831   40.1569 N.pl3  49  UNL49       0.0000
   4709 C          -1.7549   45.3851   38.0033 C.2    49  UNL49       0.0000
   4710 C          -1.4643   44.9270   39.2609 C.2    49  UNL49       0.0000
   4711 C          -0.5973   46.9342   41.9992 C.3    49  UNL49       0.0000
   4712 C          -2.7498   47.5299   37.0674 C.3    49  UNL49       0.0000
   4713 C          -2.4555   46.8978   39.4626 C.3    49  UNL49       0.0000
   4714 C          -1.6584   45.9065   41.6140 C.3    49  UNL49       0.0000
   4715 H          -1.4983   44.9795   37.0344 H      49  UNL49       0.0000
   4716 H          -0.9638   44.0251   39.5874 H      49  UNL49       0.0000
   4717 H           0.3640   46.7104   41.5241 H      49  UNL49       0.0000
   4718 H          -1.8707   47.6756   36.4307 H      49  UNL49       0.0000
   4719 H          -0.8872   47.9467   41.6922 H      49  UNL49       0.0000
   4720 H          -3.5700   47.0865   36.4976 H      49  UNL49       0.0000
   4721 H          -0.4733   46.9217   43.0895 H      49  UNL49       0.0000
   4722 H          -1.3390   44.8924   41.8868 H      49  UNL49       0.0000
   4723 H          -3.0437   48.4835   37.5124 H      49  UNL49       0.0000
   4724 H          -2.8273   47.8242   39.8762 H      49  UNL49       0.0000
   4725 H          -2.6201   46.0976   42.1031 H      49  UNL49       0.0000
   4726 N           0.4344   49.6480   37.7064 N.3    49  UNL49       0.0000
   4727 C           0.3206   51.0291   40.1180 C.3    49  UNL49       0.0000
   4728 C           2.6245   48.1423   37.8943 C.3    49  UNL49       0.0000
   4729 O          -0.9117   51.7184   37.8793 O.2    49  UNL49       0.0000
   4730 O          -1.7205   49.7054   39.1458 O.2    49  UNL49       0.0000
   4731 O           0.4598   47.3609   36.6382 O.2    49  UNL49       0.0000
   4732 O           0.4174   47.4671   39.1468 O.2    49  UNL49       0.0000
   4733 F           1.3515   51.8525   39.8111 F      49  UNL49       0.0000
   4734 F           3.0819   48.9297   38.8950 F      49  UNL49       0.0000
   4735 F           0.8272   49.9651   40.7971 F      49  UNL49       0.0000
   4736 F          -0.5399   51.6931   40.9441 F      49  UNL49       0.0000
   4737 F           3.1124   48.6026   36.7062 F      49  UNL49       0.0000
   4738 F           3.1119   46.8876   38.0814 F      49  UNL49       0.0000
   4739 S          -0.6131   50.4823   38.5845 S.O2   49  UNL49       0.0000
   4740 S           0.7630   48.0858   37.8705 S.O2   49  UNL49       0.0000
   4741 TI        -15.6764   31.3771   37.3556 Ti      1  UNL1        0.0000
   4742 TI         -4.8459   34.2584   27.9908 Ti      1  UNL1        0.0000
   4743 TI        -11.5797   27.4410   35.5356 Ti      1  UNL1        0.0000
   4744 TI        -10.0685   36.6031   29.7626 Ti      1  UNL1        0.0000
   4745 TI        -11.0671   38.2814   27.8582 Ti      1  UNL1        0.0000
   4746 TI         -9.6915   27.1866   37.4890 Ti      1  UNL1        0.0000
   4747 TI        -14.7272   29.6413   35.4642 Ti      1  UNL1        0.0000
   4748 TI         -6.8337   34.5609   29.8383 Ti      1  UNL1        0.0000
   4749 H         -15.1745   35.2742   37.1362 H       1  UNL1        0.0000
   4750 H          -4.0371   30.3523   28.3115 H       1  UNL1        0.0000
   4751 H         -19.6363   30.6205   36.9732 H       1  UNL1        0.0000
   4752 H          -1.4638   36.2627   28.1915 H       1  UNL1        0.0000
   4753 H          -8.7159   23.1521   37.1031 H       1  UNL1        0.0000
   4754 H         -15.1256   37.6915   28.1803 H       1  UNL1        0.0000
   4755 H         -10.5726   36.6446   25.9851 H       1  UNL1        0.0000
   4756 H          -6.7214   34.0157   26.2909 H       1  UNL1        0.0000
   4757 H          -9.1816   26.5195   31.9779 H       1  UNL1        0.0000
   4758 H         -11.7919   38.4401   33.3816 H       1  UNL1        0.0000
   4759 H         -18.7998   33.0299   35.1082 H       1  UNL1        0.0000
   4760 H          -2.0911   32.1740   30.2968 H       1  UNL1        0.0000
   4761 H         -16.4987   31.5824   31.7744 H       1  UNL1        0.0000
   4762 H         -14.1672   40.1093   30.2115 H       1  UNL1        0.0000
   4763 H         -10.6748   41.3842   28.7137 H       1  UNL1        0.0000
   4764 H          -4.1950   28.3335   29.5140 H       1  UNL1        0.0000
   4765 H          -7.9759   36.2832   28.4240 H       1  UNL1        0.0000
   4766 H         -12.6604   29.2893   36.8293 H       1  UNL1        0.0000
   4767 H          -5.4567   29.1215   35.8787 H       1  UNL1        0.0000
   4768 H          -6.9379   28.6524   36.6260 H       1  UNL1        0.0000
   4769 H          -4.8826   33.5551   34.7798 H       1  UNL1        0.0000
   4770 H          -5.4523   33.9137   33.1612 H       1  UNL1        0.0000
   4771 H          -5.9456   24.1666   35.6886 H       1  UNL1        0.0000
   4772 H          -7.2247   25.2672   36.1460 H       1  UNL1        0.0000
   4773 C          -4.2679   33.5171   30.8543 C.3     1  UNL1        0.0000
   4774 C         -16.6369   31.6385   34.5086 C.3     1  UNL1        0.0000
   4775 C          -8.9992   26.4303   34.6109 C.3     1  UNL1        0.0000
   4776 C         -12.0046   38.5736   30.7220 C.3     1  UNL1        0.0000
   4777 C          -3.3718   32.9128   31.8495 C.ar    1  UNL1        0.0000
   4778 C         -17.5688   32.2636   33.5316 C.ar    1  UNL1        0.0000
   4779 C          -8.0590   25.8159   33.6637 C.ar    1  UNL1        0.0000
   4780 C         -12.8944   39.2204   31.7218 C.2     1  UNL1        0.0000
   4781 C          -3.6206   32.9877   33.2560 C.ar    1  UNL1        0.0000
   4782 C         -17.3524   32.1436   32.1435 C.ar    1  UNL1        0.0000
   4783 C          -6.9295   25.0556   34.1168 C.ar    1  UNL1        0.0000
   4784 C         -13.9892   39.9934   31.2768 C.3     1  UNL1        0.0000
   4785 C         -12.6399   39.0496   33.0767 C.2     1  UNL1        0.0000
   4786 C          -8.3067   25.9480   32.2798 C.ar    1  UNL1        0.0000
   4787 C          -2.2382   32.2138   31.3738 C.ar    1  UNL1        0.0000
   4788 C         -18.6690   32.9560   34.0302 C.ar    1  UNL1        0.0000
   4789 C          -4.0561   30.4314   26.1674 C.ar    1  UNL1        0.0000
   4790 C         -10.5258   42.2230   26.1924 C.2     1  UNL1        0.0000
   4791 C          -1.5717   36.1945   26.0414 C.ar    1  UNL1        0.0000
   4792 C         -14.9300   37.7369   26.0220 C.ar    1  UNL1        0.0000
   4793 C          -9.3218   34.2599   31.7272 C.3     1  UNL1        0.0000
   4794 C         -14.0779   27.1655   33.6453 C.3     1  UNL1        0.0000
   4795 C          -4.1920   31.8862   26.1442 C.3     1  UNL1        0.0000
   4796 C         -10.6186   40.7895   26.1549 C.2     1  UNL1        0.0000
   4797 C          -2.8695   35.5777   26.0883 C.3     1  UNL1        0.0000
   4798 C         -13.5277   38.1513   26.0465 C.3     1  UNL1        0.0000
   4799 C          -4.0167   29.7623   27.3971 C.ar    1  UNL1        0.0000
   4800 C         -15.1636   35.8626   38.0501 C.3     1  UNL1        0.0000
   4801 C          -0.9164   36.4693   27.2754 C.ar    1  UNL1        0.0000
   4802 C         -20.1978   30.4411   37.8885 C.ar    1  UNL1        0.0000
   4803 C          -5.5120   29.3968   37.9030 C.ar    1  UNL1        0.0000
   4804 C         -15.6272   37.5065   27.2345 C.ar    1  UNL1        0.0000
   4805 C          -8.6742   22.6249   38.0521 C.ar    1  UNL1        0.0000
   4806 C         -10.5121   42.9742   27.4217 C.3     1  UNL1        0.0000
   4807 N         -10.4570   42.3753   28.6599 N.3     1  UNL1        0.0000
   4808 N          -6.0910   29.2139   36.6641 N.pl3   1  UNL1        0.0000
   4809 N          -4.7015   33.6340   33.7873 N.pl3   1  UNL1        0.0000
   4810 N          -6.5985   24.8974   35.4342 N.pl3   1  UNL1        0.0000
   4811 O          -5.4442   33.9222   31.2201 O.3     1  UNL1        0.0000
   4812 O         -15.8679   30.6877   34.1103 O.3     1  UNL1        0.0000
   4813 O          -8.6177   26.5547   35.8320 O.3     1  UNL1        0.0000
   4814 O         -12.0705   39.0033   29.5224 O.3     1  UNL1        0.0000
   4815 O         -11.2342   37.6164   31.1084 O.3     1  UNL1        0.0000
   4816 O         -10.1696   26.7987   34.2054 O.3     1  UNL1        0.0000
   4817 O          -3.8560   33.5979   29.6426 O.3     1  UNL1        0.0000
   4818 O         -16.6789   32.0748   35.7083 O.3     1  UNL1        0.0000
   4819 O          -6.5285   33.3430   28.6436 O.3     1  UNL1        0.0000
   4820 O         -14.1747   31.2016   36.2087 O.3     1  UNL1        0.0000
   4821 O          -5.5897   35.6303   29.0936 O.3     1  UNL1        0.0000
   4822 O         -15.9269   29.4769   36.7013 O.3     1  UNL1        0.0000
   4823 O         -11.3204   26.2690   36.7961 O.3     1  UNL1        0.0000
   4824 O          -9.5520   38.1644   29.0241 O.3     1  UNL1        0.0000
   4825 O         -10.3664   28.5305   36.3319 O.3     1  UNL1        0.0000
   4826 O         -11.2582   36.4073   28.5067 O.3     1  UNL1        0.0000
   4827 O          -8.9492   25.4148   38.0981 O.3     1  UNL1        0.0000
   4828 O         -10.7017   40.0880   27.2501 O.2     1  UNL1        0.0000
   4829 O          -8.1470   28.2029   38.0930 O.3     1  UNL1        0.0000
   4830 O         -12.9376   38.2523   27.1901 O.3     1  UNL1        0.0000
   4831 O          -3.4088   35.2775   27.2363 O.3     1  UNL1        0.0000
   4832 O         -17.5632   31.3171   38.0241 O.3     1  UNL1        0.0000
   4833 O          -4.2044   32.5232   27.2657 O.3     1  UNL1        0.0000
   4834 O         -15.2950   33.0994   38.1053 O.2     1  UNL1        0.0000
   4835 O          -8.3367   35.7345   29.1447 O.3     1  UNL1        0.0000
   4836 O         -13.0387   28.7307   36.1257 O.3     1  UNL1        0.0000
   4837 O          -5.8826   34.5093   26.2119 O.3     1  UNL1        0.0000
   4838 O         -10.4503   37.6114   26.0451 O.3     1  UNL1        0.0000
   4839 H          -9.2117   30.5351   34.5322 H       1  UNL1        0.0000
   4840 H         -13.1334   24.7559   32.8847 H       1  UNL1        0.0000
   4841 H          -8.4535   39.4499   31.7571 H      49  UNL49       0.0000
   4842 H          -8.1036   32.2750   33.1016 H       1  UNL1        0.0000
   4843 H         -13.0474   32.3173   33.7191 H       1  UNL1        0.0000
   4844 H         -16.6313   27.2574   32.7830 H       1  UNL1        0.0000
   4845 H         -11.6749   30.5504   34.7879 H       1  UNL1        0.0000
   4846 H         -11.9332   34.0769   32.3230 H       1  UNL1        0.0000
   4847 H          -7.3498   37.2739   31.3168 H      49  UNL49       0.0000
   4848 H         -20.9433   37.5072   31.7592 H      49  UNL49       0.0000
   4849 C          -9.9565   33.2688   32.6240 C.ar    1  UNL1        0.0000
   4850 C         -11.1912   31.3155   34.1828 C.ar    1  UNL1        0.0000
   4851 C          -6.7787   38.0874   31.7646 C.2    49  UNL49       0.0000
   4852 C         -14.8101   26.1109   32.8999 C.ar    1  UNL1        0.0000
   4853 C         -11.3526   33.2943   32.8058 C.ar    1  UNL1        0.0000
   4854 C          -9.8008   31.3008   34.0308 C.ar    1  UNL1        0.0000
   4855 C          -7.4047   39.3139   32.0155 C.3    49  UNL49       0.0000
   4856 C         -14.1813   24.8832   32.6221 C.ar    1  UNL1        0.0000
   4857 C          -5.4255   37.9011   32.0688 C.2    49  UNL49       0.0000
   4858 C         -16.1636   26.2998   32.5648 C.ar    1  UNL1        0.0000
   4859 C          -9.1817   32.2729   33.2447 C.ar    1  UNL1        0.0000
   4860 C         -11.9677   32.3117   33.5788 C.ar    1  UNL1        0.0000
   4861 O          -8.0794   34.1234   31.4237 O.3     1  UNL1        0.0000
   4862 O         -14.7008   28.2447   33.9568 O.3     1  UNL1        0.0000
   4863 O         -12.8765   26.9250   34.0268 O.3     1  UNL1        0.0000
   4864 O         -10.0467   35.2032   31.2459 O.3     1  UNL1        0.0000
   4865 N          -7.0097   39.5488   51.2476 N.pl3  49  UNL49       0.0000
   4866 N          -6.5466   38.8166   53.2515 N.pl3  49  UNL49       0.0000
   4867 C          -6.3895   38.3187   51.0979 C.2    49  UNL49       0.0000
   4868 C          -6.0989   37.8606   52.3555 C.2    49  UNL49       0.0000
   4869 C          -5.2320   39.8678   55.0938 C.3    49  UNL49       0.0000
   4870 C          -7.3845   40.4634   50.1621 C.3    49  UNL49       0.0000
   4871 C          -7.0902   39.8314   52.5573 C.3    49  UNL49       0.0000
   4872 C          -6.2930   38.8401   54.7086 C.3    49  UNL49       0.0000
   4873 H          -6.1329   37.9131   50.1290 H      49  UNL49       0.0000
   4874 H          -5.5984   36.9587   52.6820 H      49  UNL49       0.0000
   4875 H          -4.2706   39.6439   54.6187 H      49  UNL49       0.0000
   4876 H          -6.5054   40.6092   49.5253 H      49  UNL49       0.0000
   4877 H          -5.5218   40.8803   54.7868 H      49  UNL49       0.0000
   4878 H          -8.2047   40.0201   49.5922 H      49  UNL49       0.0000
   4879 H          -5.1079   39.8552   56.1841 H      49  UNL49       0.0000
   4880 H          -5.9737   37.8259   54.9814 H      49  UNL49       0.0000
   4881 H          -7.6783   41.4171   50.6070 H      49  UNL49       0.0000
   4882 H          -7.4620   40.7578   52.9708 H      49  UNL49       0.0000
   4883 H          -7.2547   39.0312   55.1977 H      49  UNL49       0.0000
   4884 N          -4.2002   42.5816   50.8010 N.3    49  UNL49       0.0000
   4885 C          -4.3140   43.9627   53.2126 C.3    49  UNL49       0.0000
   4886 C          -2.0101   41.0759   50.9889 C.3    49  UNL49       0.0000
   4887 O          -5.5464   44.6519   50.9739 O.2    49  UNL49       0.0000
   4888 O          -6.3551   42.6389   52.2404 O.2    49  UNL49       0.0000
   4889 O          -4.1748   40.2945   49.7328 O.2    49  UNL49       0.0000
   4890 O          -4.2172   40.4007   52.2414 O.2    49  UNL49       0.0000
   4891 F          -3.2832   44.7860   52.9057 F      49  UNL49       0.0000
   4892 F          -1.5528   41.8633   51.9896 F      49  UNL49       0.0000
   4893 F          -3.8075   42.8986   53.8917 F      49  UNL49       0.0000
   4894 F          -5.1745   44.6267   54.0387 F      49  UNL49       0.0000
   4895 F          -1.5222   41.5362   49.8008 F      49  UNL49       0.0000
   4896 F          -1.5227   39.8212   51.1760 F      49  UNL49       0.0000
   4897 S          -5.2477   43.4159   51.6792 S.O2   49  UNL49       0.0000
   4898 S          -3.8716   41.0194   50.9651 S.O2   49  UNL49       0.0000
   4899 TI        -20.3110   24.3107   50.4502 Ti      1  UNL1        0.0000
   4900 TI         -9.4806   27.1919   41.0854 Ti      1  UNL1        0.0000
   4901 TI        -16.2143   20.3745   48.6303 Ti      1  UNL1        0.0000
   4902 TI        -14.7031   29.5367   42.8572 Ti      1  UNL1        0.0000
   4903 TI        -15.7017   31.2150   40.9528 Ti      1  UNL1        0.0000
   4904 TI        -14.3261   20.1202   50.5836 Ti      1  UNL1        0.0000
   4905 TI        -19.3618   22.5748   48.5588 Ti      1  UNL1        0.0000
   4906 TI        -11.4684   27.4945   42.9329 Ti      1  UNL1        0.0000
   4907 H         -19.8092   28.2078   50.2308 H      49  UNL49       0.0000
   4908 H          -8.6718   23.2859   41.4061 H       1  UNL1        0.0000
   4909 H         -24.2709   23.5541   50.0678 H      49  UNL49       0.0000
   4910 H          -6.0984   29.1962   41.2861 H       1  UNL1        0.0000
   4911 H         -13.3505   16.0856   50.1977 H      49  UNL49       0.0000
   4912 H         -19.7602   30.6251   41.2749 H       1  UNL1        0.0000
   4913 H         -15.2073   29.5782   39.0798 H       1  UNL1        0.0000
   4914 H         -11.3561   26.9492   39.3855 H       1  UNL1        0.0000
   4915 H         -13.8162   19.4531   45.0725 H       1  UNL1        0.0000
   4916 H         -16.4266   31.3737   46.4762 H       1  UNL1        0.0000
   4917 H         -23.4344   25.9635   48.2029 H       1  UNL1        0.0000
   4918 H          -6.7258   25.1076   43.3914 H       1  UNL1        0.0000
   4919 H         -21.1333   24.5160   44.8690 H       1  UNL1        0.0000
   4920 H         -18.8018   33.0428   43.3061 H       1  UNL1        0.0000
   4921 H         -15.3095   34.3178   41.8083 H       1  UNL1        0.0000
   4922 H          -8.8296   21.2670   42.6086 H       1  UNL1        0.0000
   4923 H         -12.6105   29.2168   41.5186 H       1  UNL1        0.0000
   4924 H         -17.2950   22.2229   49.9239 H       1  UNL1        0.0000
   4925 H         -10.0914   22.0550   48.9733 H      49  UNL49       0.0000
   4926 H         -11.5725   21.5860   49.7206 H      49  UNL49       0.0000
   4927 H          -9.5173   26.4887   47.8744 H       1  UNL1        0.0000
   4928 H         -10.0870   26.8472   46.2558 H       1  UNL1        0.0000
   4929 H         -10.5802   17.1002   48.7833 H       1  UNL1        0.0000
   4930 H         -11.8594   18.2008   49.2407 H       1  UNL1        0.0000
   4931 C          -8.9025   26.4507   43.9490 C.3     1  UNL1        0.0000
   4932 C         -21.2716   24.5721   47.6032 C.3     1  UNL1        0.0000
   4933 C         -13.6338   19.3638   47.7055 C.3     1  UNL1        0.0000
   4934 C         -16.6393   31.5072   43.8166 C.3     1  UNL1        0.0000
   4935 C          -8.0065   25.8464   44.9441 C.ar    1  UNL1        0.0000
   4936 C         -22.2035   25.1971   46.6262 C.ar    1  UNL1        0.0000
   4937 C         -12.6936   18.7495   46.7583 C.ar    1  UNL1        0.0000
   4938 C         -17.5291   32.1540   44.8164 C.2     1  UNL1        0.0000
   4939 C          -8.2553   25.9213   46.3506 C.ar    1  UNL1        0.0000
   4940 C         -21.9871   25.0771   45.2381 C.ar    1  UNL1        0.0000
   4941 C         -11.5642   17.9892   47.2114 C.ar    1  UNL1        0.0000
   4942 C         -18.6238   32.9269   44.3715 C.3     1  UNL1        0.0000
   4943 C         -17.2746   31.9832   46.1713 C.2     1  UNL1        0.0000
   4944 C         -12.9413   18.8816   45.3744 C.ar    1  UNL1        0.0000
   4945 C          -6.8728   25.1474   44.4684 C.ar    1  UNL1        0.0000
   4946 C         -23.3036   25.8895   47.1248 C.ar    1  UNL1        0.0000
   4947 C          -8.6907   23.3649   39.2620 C.ar    1  UNL1        0.0000
   4948 C         -15.1605   35.1565   39.2870 C.2     1  UNL1        0.0000
   4949 C          -6.2063   29.1281   39.1360 C.ar    1  UNL1        0.0000
   4950 C         -19.5646   30.6705   39.1166 C.ar    1  UNL1        0.0000
   4951 C         -13.9564   27.1935   44.8218 C.3     1  UNL1        0.0000
   4952 C         -18.7125   20.0991   46.7400 C.3     1  UNL1        0.0000
   4953 C          -8.8266   24.8198   39.2388 C.3     1  UNL1        0.0000
   4954 C         -15.2532   33.7230   39.2495 C.2     1  UNL1        0.0000
   4955 C          -7.5041   28.5112   39.1829 C.3     1  UNL1        0.0000
   4956 C         -18.1623   31.0848   39.1411 C.3     1  UNL1        0.0000
   4957 C          -8.6514   22.6958   40.4917 C.ar    1  UNL1        0.0000
   4958 C         -19.7982   28.7962   51.1447 C.3    60  UNL60       0.0000
   4959 C          -5.5510   29.4029   40.3700 C.ar    1  UNL1        0.0000
   4960 C         -24.8324   23.3747   50.9831 C.2    49  UNL49       0.0000
   4961 C         -10.1467   22.3304   50.9976 C.2    49  UNL49       0.0000
   4962 C         -20.2618   30.4401   40.3291 C.ar    1  UNL1        0.0000
   4963 C         -13.3089   15.5585   51.1468 C.2    49  UNL49       0.0000
   4964 C         -15.1467   35.9077   40.5163 C.3     1  UNL1        0.0000
   4965 N         -15.0916   35.3089   41.7545 N.3     1  UNL1        0.0000
   4966 N         -10.7257   22.1475   49.7587 N.pl3  49  UNL49       0.0000
   4967 N          -9.3361   26.5675   46.8819 N.pl3   1  UNL1        0.0000
   4968 N         -11.2332   17.8309   48.5288 N.pl3   1  UNL1        0.0000
   4969 O         -10.0788   26.8558   44.3148 O.3     1  UNL1        0.0000
   4970 O         -20.5026   23.6212   47.2049 O.3     1  UNL1        0.0000
   4971 O         -13.2524   19.4883   48.9266 O.3     1  UNL1        0.0000
   4972 O         -16.7051   31.9368   42.6170 O.3     1  UNL1        0.0000
   4973 O         -15.8688   30.5499   44.2030 O.3     1  UNL1        0.0000
   4974 O         -14.8043   19.7323   47.3000 O.3     1  UNL1        0.0000
   4975 O          -8.4906   26.5314   42.7372 O.3     1  UNL1        0.0000
   4976 O         -21.3136   25.0084   48.8029 O.3     1  UNL1        0.0000
   4977 O         -11.1631   26.2766   41.7382 O.3     1  UNL1        0.0000
   4978 O         -18.8094   24.1352   49.3033 O.3     1  UNL1        0.0000
   4979 O         -10.2244   28.5639   42.1882 O.3     1  UNL1        0.0000
   4980 O         -20.5615   22.4105   49.7959 O.3     1  UNL1        0.0000
   4981 O         -15.9550   19.2026   49.8907 O.3     1  UNL1        0.0000
   4982 O         -14.1866   31.0980   42.1188 O.3     1  UNL1        0.0000
   4983 O         -15.0011   21.4640   49.4265 O.3     1  UNL1        0.0000
   4984 O         -15.8928   29.3409   41.6013 O.3     1  UNL1        0.0000
   4985 O         -13.5838   18.3483   51.1927 O.3     1  UNL1        0.0000
   4986 O         -15.3363   33.0216   40.3447 O.2     1  UNL1        0.0000
   4987 O         -12.7817   21.1365   51.1876 O.3     1  UNL1        0.0000
   4988 O         -17.5723   31.1859   40.2847 O.3     1  UNL1        0.0000
   4989 O          -8.0435   28.2111   40.3309 O.3     1  UNL1        0.0000
   4990 O         -22.1978   24.2507   51.1187 O.3     1  UNL1        0.0000
   4991 O          -8.8390   25.4567   40.3603 O.3     1  UNL1        0.0000
   4992 O         -19.9296   26.0330   51.1999 O.3     1  UNL1        0.0000
   4993 O         -12.9714   28.6680   42.2393 O.3     1  UNL1        0.0000
   4994 O         -17.6733   21.6642   49.2203 O.3     1  UNL1        0.0000
   4995 O         -10.5172   27.4429   39.3065 O.3     1  UNL1        0.0000
   4996 O         -15.0849   30.5450   39.1397 O.3     1  UNL1        0.0000
   4997 H         -13.8464   23.4687   47.6268 H       1  UNL1        0.0000
   4998 H         -17.7680   17.6895   45.9793 H       1  UNL1        0.0000
   4999 H         -13.0882   32.3835   44.8517 H      49  UNL49       0.0000
   5000 H         -12.7382   25.2085   46.1962 H       1  UNL1        0.0000
   5001 H         -17.6820   25.2509   46.8138 H       1  UNL1        0.0000
   5002 H         -21.2660   20.1909   45.8776 H       1  UNL1        0.0000
   5003 H         -16.3095   23.4840   47.8825 H       1  UNL1        0.0000
   5004 H         -16.5679   27.0105   45.4176 H       1  UNL1        0.0000
   5005 H         -11.9844   30.2074   44.4114 H      49  UNL49       0.0000
   5006 H         -25.5779   30.4408   44.8538 H      49  UNL49       0.0000
   5007 C         -14.5911   26.2024   45.7186 C.ar    1  UNL1        0.0000
   5008 C         -15.8258   24.2491   47.2774 C.ar    1  UNL1        0.0000
   5009 C         -11.4133   31.0210   44.8592 C.2    49  UNL49       0.0000
   5010 C         -19.4447   19.0444   45.9945 C.ar    1  UNL1        0.0000
   5011 C         -15.9872   26.2279   45.9004 C.ar    1  UNL1        0.0000
   5012 C         -14.4354   24.2344   47.1254 C.ar    1  UNL1        0.0000
   5013 C         -12.0394   32.2475   45.1101 C.3    49  UNL49       0.0000
   5014 C         -18.8160   17.8168   45.7167 C.ar    1  UNL1        0.0000
   5015 C         -10.0602   30.8347   45.1634 C.2    49  UNL49       0.0000
   5016 C         -20.7982   19.2334   45.6594 C.ar    1  UNL1        0.0000
   5017 C         -13.8163   25.2064   46.3393 C.ar    1  UNL1        0.0000
   5018 C         -16.6024   25.2452   46.6735 C.ar    1  UNL1        0.0000
   5019 O         -12.7141   27.0569   44.5183 O.3     1  UNL1        0.0000
   5020 O         -19.3354   21.1782   47.0514 O.3     1  UNL1        0.0000
   5021 O         -17.5111   19.8585   47.1214 O.3     1  UNL1        0.0000
   5022 O         -14.6813   28.1368   44.3406 O.3     1  UNL1        0.0000
   5023 N         -11.6444   32.4824   64.3422 N.pl3  49  UNL49       0.0000
   5024 N         -11.1813   31.7502   66.3461 N.pl3  49  UNL49       0.0000
   5025 C         -11.0242   31.2523   64.1925 C.2    49  UNL49       0.0000
   5026 C         -10.7336   30.7941   65.4501 C.2    49  UNL49       0.0000
   5027 C          -9.8666   32.8014   68.1885 C.3    49  UNL49       0.0000
   5028 C         -12.0191   33.3970   63.2567 C.3    49  UNL49       0.0000
   5029 C         -11.7248   32.7649   65.6519 C.3    49  UNL49       0.0000
   5030 C         -10.9277   31.7736   67.8032 C.3    49  UNL49       0.0000
   5031 H         -10.7676   30.8466   63.2236 H      49  UNL49       0.0000
   5032 H         -10.2331   29.8922   65.7766 H      49  UNL49       0.0000
   5033 H          -8.9053   32.5775   67.7133 H      49  UNL49       0.0000
   5034 H         -11.1400   33.5428   62.6199 H      49  UNL49       0.0000
   5035 H         -10.1565   33.8138   67.8815 H      49  UNL49       0.0000
   5036 H         -12.8393   32.9536   62.6868 H      49  UNL49       0.0000
   5037 H          -9.7426   32.7888   69.2787 H      49  UNL49       0.0000
   5038 H         -10.6083   30.7595   68.0760 H      49  UNL49       0.0000
   5039 H         -12.3130   34.3507   63.7016 H      49  UNL49       0.0000
   5040 H         -12.0966   33.6913   66.0654 H      49  UNL49       0.0000
   5041 H         -11.8894   31.9647   68.2923 H      49  UNL49       0.0000
   5042 N          -8.8349   35.5151   63.8956 N.3    49  UNL49       0.0000
   5043 C          -8.9486   36.8962   66.3072 C.3    49  UNL49       0.0000
   5044 C          -6.6448   34.0094   64.0835 C.3    49  UNL49       0.0000
   5045 O         -10.1810   37.5855   64.0685 O.2    49  UNL49       0.0000
   5046 O         -10.9898   35.5725   65.3350 O.2    49  UNL49       0.0000
   5047 O          -8.8095   33.2280   62.8274 O.2    49  UNL49       0.0000
   5048 O          -8.8518   33.3343   65.3360 O.2    49  UNL49       0.0000
   5049 F          -7.9178   37.7196   66.0003 F      49  UNL49       0.0000
   5050 F          -6.1874   34.7968   65.0842 F      49  UNL49       0.0000
   5051 F          -8.4421   35.8322   66.9863 F      49  UNL49       0.0000
   5052 F          -9.8092   37.5602   67.1333 F      49  UNL49       0.0000
   5053 F          -6.1569   34.4698   62.8954 F      49  UNL49       0.0000
   5054 F          -6.1574   32.7547   64.2706 F      49  UNL49       0.0000
   5055 S          -9.8824   36.3494   64.7738 S.O2   49  UNL49       0.0000
   5056 S          -8.5063   33.9529   64.0597 S.O2   49  UNL49       0.0000
   5057 TI         29.1434    1.1152   11.4255 Ti      1  UNL1        0.0000
   5058 TI         39.9739    3.9964    2.0607 Ti      1  UNL1        0.0000
   5059 TI         33.2401   -2.8210    9.6056 Ti      1  UNL1        0.0000
   5060 TI         34.7513    6.3412    3.8325 Ti      1  UNL1        0.0000
   5061 TI         33.7527    8.0195    1.9281 Ti      1  UNL1        0.0000
   5062 TI         35.1283   -3.0753   11.5589 Ti      1  UNL1        0.0000
   5063 TI         30.0926   -0.6207    9.5341 Ti      1  UNL1        0.0000
   5064 TI         37.9861    4.2990    3.9082 Ti      1  UNL1        0.0000
   5065 H          29.6453    5.0123   11.2061 H       1  UNL1        0.0000
   5066 H          40.7827    0.0904    2.3814 H       1  UNL1        0.0000
   5067 H          25.1835    0.3586   11.0431 H       1  UNL1        0.0000
   5068 H          43.3561    6.0007    2.2614 H       1  UNL1        0.0000
   5069 H          36.1039   -7.1098   11.1730 H       1  UNL1        0.0000
   5070 H          29.6942    7.4296    2.2502 H       1  UNL1        0.0000
   5071 H          34.2472    6.3827    0.0551 H       1  UNL1        0.0000
   5072 H          38.0984    3.7538    0.3608 H       1  UNL1        0.0000
   5073 H          35.6382   -3.7424    6.0478 H       1  UNL1        0.0000
   5074 H          33.0279    8.1782    7.4515 H       1  UNL1        0.0000
   5075 H          26.0200    2.7680    9.1781 H       1  UNL1        0.0000
   5076 H          42.7287    1.9121    4.3667 H       1  UNL1        0.0000
   5077 H          28.3211    1.3205    5.8443 H       1  UNL1        0.0000
   5078 H          30.6527    9.8473    4.2814 H       1  UNL1        0.0000
   5079 H          34.1450   11.1223    2.7836 H       1  UNL1        0.0000
   5080 H          40.6249   -1.9284    3.5839 H      61  UNL61       0.0000
   5081 H          36.8439    6.0213    2.4939 H       1  UNL1        0.0000
   5082 H          32.1594   -0.9726   10.8992 H       1  UNL1        0.0000
   5083 H          39.3631   -1.1405    9.9486 H       1  UNL1        0.0000
   5084 H          37.8819   -1.6095   10.6959 H       1  UNL1        0.0000
   5085 H          39.9372    3.2932    8.8497 H       1  UNL1        0.0000
   5086 H          39.3675    3.6518    7.2311 H       1  UNL1        0.0000
   5087 H          38.8743   -6.0953    9.7586 H       1  UNL1        0.0000
   5088 H          37.5951   -4.9947   10.2159 H       1  UNL1        0.0000
   5089 C          40.5519    3.2552    4.9243 C.3     1  UNL1        0.0000
   5090 C          28.1829    1.3766    8.5785 C.3     1  UNL1        0.0000
   5091 C          35.8206   -3.8317    8.6808 C.3     1  UNL1        0.0000
   5092 C          32.8152    8.3117    4.7919 C.3     1  UNL1        0.0000
   5093 C          41.4480    2.6509    5.9194 C.ar    1  UNL1        0.0000
   5094 C          27.2510    2.0016    7.6015 C.ar    1  UNL1        0.0000
   5095 C          36.7608   -4.4460    7.7336 C.2     1  UNL1        0.0000
   5096 C          31.9254    8.9585    5.7917 C.ar    1  UNL1        0.0000
   5097 C          41.1992    2.7258    7.3259 C.ar    1  UNL1        0.0000
   5098 C          27.4674    1.8817    6.2134 C.ar    1  UNL1        0.0000
   5099 C          37.8903   -5.2063    8.1867 C.2     1  UNL1        0.0000
   5100 C          30.8307    9.7314    5.3467 C.ar    1  UNL1        0.0000
   5101 C          32.1799    8.7877    7.1466 C.ar    1  UNL1        0.0000
   5102 C          36.5131   -4.3139    6.3497 C.3     1  UNL1        0.0000
   5103 C          42.5816    1.9519    5.4437 C.ar    1  UNL1        0.0000
   5104 C          26.1508    2.6940    8.1001 C.ar    1  UNL1        0.0000
   5105 C          40.7637    0.1695    0.2373 C.2     1  UNL1        0.0000
   5106 C          34.2940   11.9611    0.2623 C.2     1  UNL1        0.0000
   5107 C          43.2482    5.9326    0.1113 C.2     1  UNL1        0.0000
   5108 C          29.8898    7.4750    0.0919 C.2     1  UNL1        0.0000
   5109 C          35.4980    3.9980    5.7971 C.3     1  UNL1        0.0000
   5110 C          30.7419   -3.0964    7.7153 C.2     1  UNL1        0.0000
   5111 C          40.6279    1.6243    0.2141 C.2     1  UNL1        0.0000
   5112 C          34.2012   10.5275    0.2248 C.2     1  UNL1        0.0000
   5113 C          41.9503    5.3157    0.1582 C.2     1  UNL1        0.0000
   5114 C          31.2921    7.8894    0.1164 C.2     1  UNL1        0.0000
   5115 C          40.8031   -0.4997    1.4670 C.3     1  UNL1        0.0000
   5116 C          29.6562    5.6007   12.1200 C.ar    1  UNL1        0.0000
   5117 C          43.9035    6.2074    1.3453 C.2     1  UNL1        0.0000
   5118 C          24.6220    0.1792   11.9584 C.ar    1  UNL1        0.0000
   5119 C          39.3078   -0.8651   11.9729 C.ar    1  UNL1        0.0000
   5120 C          29.1926    7.2446    1.3044 C.2     1  UNL1        0.0000
   5121 C          36.1456   -7.6370   12.1221 C.3     1  UNL1        0.0000
   5122 C          34.3078   12.7122    1.4916 C.2     1  UNL1        0.0000
   5123 N          34.3628   12.1134    2.7298 N.pl3   1  UNL1        0.0000
   5124 N          38.7288   -1.0480   10.7340 N.pl3   1  UNL1        0.0000
   5125 N          40.1183    3.3720    7.8572 N.pl3   1  UNL1        0.0000
   5126 N          38.2213   -5.3646    9.5041 N.pl3   1  UNL1        0.0000
   5127 O          39.3756    3.6603    5.2900 O.3     1  UNL1        0.0000
   5128 O          28.9519    0.4258    8.1802 O.3     1  UNL1        0.0000
   5129 O          36.2021   -3.7072    9.9019 O.3     1  UNL1        0.0000
   5130 O          32.7493    8.7413    3.5923 O.3     1  UNL1        0.0000
   5131 O          33.5857    7.3545    5.1783 O.3     1  UNL1        0.0000
   5132 O          34.6502   -3.4632    8.2753 O.3     1  UNL1        0.0000
   5133 O          40.9638    3.3360    3.7125 O.3     1  UNL1        0.0000
   5134 O          28.1409    1.8129    9.7782 O.3     1  UNL1        0.0000
   5135 O          38.2913    3.0811    2.7135 O.3     1  UNL1        0.0000
   5136 O          30.6451    0.9397   10.2786 O.3     1  UNL1        0.0000
   5137 O          39.2301    5.3684    3.1635 O.3     1  UNL1        0.0000
   5138 O          28.8929   -0.7850   10.7712 O.3     1  UNL1        0.0000
   5139 O          33.4994   -3.9929   10.8660 O.3     1  UNL1        0.0000
   5140 O          35.2679    7.9025    3.0940 O.3     1  UNL1        0.0000
   5141 O          34.4534   -1.7314   10.4018 O.3     1  UNL1        0.0000
   5142 O          33.5616    6.1454    2.5766 O.3     1  UNL1        0.0000
   5143 O          35.8707   -4.8472   12.1680 O.2     1  UNL1        0.0000
   5144 O          34.1181    9.8261    1.3200 O.2     1  UNL1        0.0000
   5145 O          36.6728   -2.0590   12.1629 O.3     1  UNL1        0.0000
   5146 O          31.8822    7.9904    1.2600 O.2     1  UNL1        0.0000
   5147 O          41.4110    5.0156    1.3062 O.2     1  UNL1        0.0000
   5148 O          27.2567    1.0552   12.0940 O.3     1  UNL1        0.0000
   5149 O          40.6154    2.2612    1.3356 O.2     1  UNL1        0.0000
   5150 O          29.5249    2.8375   12.1752 O.3     1  UNL1        0.0000
   5151 O          36.4831    5.4725    3.2146 O.3     1  UNL1        0.0000
   5152 O          31.7812   -1.5313   10.1956 O.3     1  UNL1        0.0000
   5153 O          38.9372    4.2474    0.2818 O.3     1  UNL1        0.0000
   5154 O          34.3696    7.3495    0.1150 O.3     1  UNL1        0.0000
   5155 H          35.6081    0.2732    8.6021 H       1  UNL1        0.0000
   5156 H          31.6864   -5.5060    6.9546 H       1  UNL1        0.0000
   5157 H          36.3663    9.1880    5.8270 H       1  UNL1        0.0000
   5158 H          36.7163    2.0130    7.1715 H       1  UNL1        0.0000
   5159 H          31.7725    2.0554    7.7891 H       1  UNL1        0.0000
   5160 H          28.1885   -3.0046    6.8529 H       1  UNL1        0.0000
   5161 H          33.1449    0.2885    8.8578 H       1  UNL1        0.0000
   5162 H          32.8866    3.8150    6.3929 H       1  UNL1        0.0000
   5163 H          37.4700    7.0120    5.3867 H       1  UNL1        0.0000
   5164 H          23.8766    7.2453    5.8291 H       1  UNL1        0.0000
   5165 C          34.8633    3.0069    6.6939 C.ar    1  UNL1        0.0000
   5166 C          33.6286    1.0536    8.2527 C.ar    1  UNL1        0.0000
   5167 C          38.0412    7.8255    5.8345 C.ar    1  UNL1        0.0000
   5168 C          30.0097   -4.1511    6.9698 C.2     1  UNL1        0.0000
   5169 C          33.4673    3.0324    6.8757 C.ar    1  UNL1        0.0000
   5170 C          35.0190    1.0389    8.1007 C.ar    1  UNL1        0.0000
   5171 C          37.4151    9.0520    6.0854 C.ar    1  UNL1        0.0000
   5172 C          30.6385   -5.3787    6.6920 C.3     1  UNL1        0.0000
   5173 C          39.3943    7.6392    6.1387 C.ar    1  UNL1        0.0000
   5174 C          28.6563   -3.9621    6.6347 C.3     1  UNL1        0.0000
   5175 C          35.6382    2.0110    7.3146 C.ar    1  UNL1        0.0000
   5176 C          32.8521    2.0497    7.6488 C.ar    1  UNL1        0.0000
   5177 O          36.7404    3.8615    5.4936 O.3     1  UNL1        0.0000
   5178 O          30.1190   -2.0173    8.0267 O.2     1  UNL1        0.0000
   5179 O          31.9434   -3.3369    8.0967 O.2     1  UNL1        0.0000
   5180 O          34.7732    4.9413    5.3159 O.3     1  UNL1        0.0000
   5181 N          37.8101    9.2869   25.3175 N.pl3  49  UNL49       0.0000
   5182 N          38.2732    8.5547   27.3214 N.pl3  49  UNL49       0.0000
   5183 C          38.4303    8.0568   25.1678 C.2    49  UNL49       0.0000
   5184 C          38.7209    7.5986   26.4254 C.2    49  UNL49       0.0000
   5185 C          39.5878    9.6059   29.1638 C.3    49  UNL49       0.0000
   5186 C          37.4353   10.2015   24.2320 C.3    49  UNL49       0.0000
   5187 C          37.7297    9.5694   26.6272 C.3    49  UNL49       0.0000
   5188 C          38.5268    8.5781   28.7785 C.3    49  UNL49       0.0000
   5189 H          38.6869    7.6511   24.1989 H      49  UNL49       0.0000
   5190 H          39.2214    6.6968   26.7519 H      49  UNL49       0.0000
   5191 H          40.5492    9.3820   28.6886 H      49  UNL49       0.0000
   5192 H          38.3145   10.3473   23.5952 H      49  UNL49       0.0000
   5193 H          39.2980   10.6183   28.8567 H      49  UNL49       0.0000
   5194 H          36.6151    9.7582   23.6621 H      49  UNL49       0.0000
   5195 H          39.7119    9.5933   30.2540 H      49  UNL49       0.0000
   5196 H          38.8461    7.5640   29.0513 H      49  UNL49       0.0000
   5197 H          37.1415   11.1552   24.6769 H      49  UNL49       0.0000
   5198 H          37.3578   10.4959   27.0407 H      49  UNL49       0.0000
   5199 H          37.5651    8.7693   29.2676 H      49  UNL49       0.0000
   5200 N          40.6196   12.3196   24.8709 N.3    49  UNL49       0.0000
   5201 C          40.5058   13.7007   27.2825 C.3    49  UNL49       0.0000
   5202 C          42.8097   10.8139   25.0588 C.3    49  UNL49       0.0000
   5203 O          39.2734   14.3900   25.0438 O.2    49  UNL49       0.0000
   5204 O          38.4647   12.3770   26.3103 O.2    49  UNL49       0.0000
   5205 O          40.6450   10.0326   23.8027 O.2    49  UNL49       0.0000
   5206 O          40.6026   10.1388   26.3113 O.2    49  UNL49       0.0000
   5207 F          41.5366   14.5241   26.9756 F      49  UNL49       0.0000
   5208 F          43.2670   11.6013   26.0595 F      49  UNL49       0.0000
   5209 F          41.0124   12.6367   27.9616 F      49  UNL49       0.0000
   5210 F          39.6453   14.3647   28.1086 F      49  UNL49       0.0000
   5211 F          43.2976   11.2743   23.8707 F      49  UNL49       0.0000
   5212 F          43.2971    9.5592   25.2459 F      49  UNL49       0.0000
   5213 S          39.5721   13.1539   25.7491 S.O2   49  UNL49       0.0000
   5214 S          40.9482   10.7575   25.0350 S.O2   49  UNL49       0.0000
   5215 TI         24.5088   -5.9512   24.5201 Ti      1  UNL1        0.0000
   5216 TI         35.3393   -3.0700   15.1553 Ti      1  UNL1        0.0000
   5217 TI         28.6055   -9.8874   22.7002 Ti      1  UNL1        0.0000
   5218 TI         30.1167   -0.7253   16.9271 Ti      1  UNL1        0.0000
   5219 TI         29.1181    0.9530   15.0227 Ti      1  UNL1        0.0000
   5220 TI         30.4937  -10.1417   24.6535 Ti      1  UNL1        0.0000
   5221 TI         25.4580   -7.6871   22.6287 Ti      1  UNL1        0.0000
   5222 TI         33.3514   -2.7674   17.0028 Ti      1  UNL1        0.0000
   5223 H          25.0107   -2.0541   24.3007 H       1  UNL1        0.0000
   5224 H          36.1480   -6.9760   15.4760 H       1  UNL1        0.0000
   5225 H          20.5489   -6.7078   24.1377 H       1  UNL1        0.0000
   5226 H          38.7214   -1.0657   15.3560 H       1  UNL1        0.0000
   5227 H          31.4693  -14.1763   24.2676 H       1  UNL1        0.0000
   5228 H          25.0596    0.3631   15.3448 H       1  UNL1        0.0000
   5229 H          29.6126   -0.6838   13.1497 H       1  UNL1        0.0000
   5230 H          33.4637   -3.3127   13.4554 H       1  UNL1        0.0000
   5231 H          31.0036  -10.8089   19.1424 H       1  UNL1        0.0000
   5232 H          28.3932    1.1118   20.5461 H       1  UNL1        0.0000
   5233 H          21.3854   -4.2985   22.2728 H       1  UNL1        0.0000
   5234 H          38.0940   -5.1543   17.4613 H       1  UNL1        0.0000
   5235 H          23.6865   -5.7459   18.9389 H       1  UNL1        0.0000
   5236 H          26.0180    2.7809   17.3760 H       1  UNL1        0.0000
   5237 H          29.5103    4.0559   15.8782 H       1  UNL1        0.0000
   5238 H          35.9902   -8.9949   16.6785 H      62  UNL62       0.0000
   5239 H          32.2093   -1.0451   15.5885 H       1  UNL1        0.0000
   5240 H          27.5248   -8.0390   23.9938 H       1  UNL1        0.0000
   5241 H          34.7284   -8.2069   23.0432 H       1  UNL1        0.0000
   5242 H          33.2473   -8.6760   23.7905 H       1  UNL1        0.0000
   5243 H          35.3025   -3.7733   21.9443 H       1  UNL1        0.0000
   5244 H          34.7328   -3.4147   20.3257 H       1  UNL1        0.0000
   5245 H          34.2396  -13.1617   22.8532 H       1  UNL1        0.0000
   5246 H          32.9605  -12.0611   23.3106 H       1  UNL1        0.0000
   5247 C          35.9173   -3.8112   18.0189 C.3     1  UNL1        0.0000
   5248 C          23.5482   -5.6898   21.6731 C.3     1  UNL1        0.0000
   5249 C          31.1860  -10.8981   21.7754 C.3     1  UNL1        0.0000
   5250 C          28.1806    1.2452   17.8865 C.3     1  UNL1        0.0000
   5251 C          36.8133   -4.4155   19.0141 C.ar    1  UNL1        0.0000
   5252 C          22.6163   -5.0648   20.6961 C.ar    1  UNL1        0.0000
   5253 C          32.1262  -11.5125   20.8283 C.2     1  UNL1        0.0000
   5254 C          27.2907    1.8920   18.8863 C.ar    1  UNL1        0.0000
   5255 C          36.5646   -4.3406   20.4205 C.ar    1  UNL1        0.0000
   5256 C          22.8327   -5.1848   19.3080 C.ar    1  UNL1        0.0000
   5257 C          33.2556  -12.2728   21.2813 C.2     1  UNL1        0.0000
   5258 C          26.1960    2.6650   18.4414 C.ar    1  UNL1        0.0000
   5259 C          27.5452    1.7213   20.2412 C.ar    1  UNL1        0.0000
   5260 C          31.8785  -11.3803   19.4443 C.3     1  UNL1        0.0000
   5261 C          37.9470   -5.1145   18.5383 C.ar    1  UNL1        0.0000
   5262 C          21.5162   -4.3724   21.1947 C.ar    1  UNL1        0.0000
   5263 C          36.1291   -6.8970   13.3319 C.2     1  UNL1        0.0000
   5264 C          29.6593    4.8946   13.3569 C.ar    1  UNL1        0.0000
   5265 C          38.6135   -1.1339   13.2059 C.ar    1  UNL1        0.0000
   5266 C          25.2552    0.4086   13.1865 C.ar    1  UNL1        0.0000
   5267 C          30.8634   -3.0684   18.8917 C.3     1  UNL1        0.0000
   5268 C          26.1073  -10.1628   20.8099 C.2     1  UNL1        0.0000
   5269 C          35.9932   -5.4421   13.3087 C.2     1  UNL1        0.0000
   5270 C          29.5666    3.4611   13.3194 C.3     1  UNL1        0.0000
   5271 C          37.3157   -1.7507   13.2528 C.3     1  UNL1        0.0000
   5272 C          26.6575    0.8229   13.2110 C.3     1  UNL1        0.0000
   5273 C          36.1684   -7.5661   14.5616 C.3     1  UNL1        0.0000
   5274 C          25.0216   -1.4657   25.2146 C.ar    1  UNL1        0.0000
   5275 C          39.2688   -0.8591   14.4399 C.ar    1  UNL1        0.0000
   5276 C          19.9874   -6.8872   25.0530 C.ar    1  UNL1        0.0000
   5277 C          34.6732   -7.9316   25.0675 C.ar    1  UNL1        0.0000
   5278 C          24.5580    0.1782   14.3990 C.ar    1  UNL1        0.0000
   5279 C          31.5109  -14.7034   25.2167 C.3     1  UNL1        0.0000
   5280 C          29.6731    5.6458   14.5862 C.ar    1  UNL1        0.0000
   5281 N          29.7282    5.0470   15.8244 N.pl3   1  UNL1        0.0000
   5282 N          34.0941   -8.1144   23.8286 N.pl3   1  UNL1        0.0000
   5283 N          35.4837   -3.6944   20.9518 N.pl3   1  UNL1        0.0000
   5284 N          33.5866  -12.4310   22.5987 N.pl3   1  UNL1        0.0000
   5285 O          34.7410   -3.4061   18.3847 O.3     1  UNL1        0.0000
   5286 O          24.3172   -6.6407   21.2748 O.3     1  UNL1        0.0000
   5287 O          31.5674  -10.7736   22.9966 O.3     1  UNL1        0.0000
   5288 O          28.1147    1.6749   16.6869 O.3     1  UNL1        0.0000
   5289 O          28.9510    0.2880   18.2729 O.3     1  UNL1        0.0000
   5290 O          30.0156  -10.5297   21.3699 O.3     1  UNL1        0.0000
   5291 O          36.3292   -3.7305   16.8071 O.3     1  UNL1        0.0000
   5292 O          23.5062   -5.2536   22.8728 O.3     1  UNL1        0.0000
   5293 O          33.6567   -3.9853   15.8081 O.3     1  UNL1        0.0000
   5294 O          26.0105   -6.1267   23.3732 O.3     1  UNL1        0.0000
   5295 O          34.5955   -1.6981   16.2581 O.3     1  UNL1        0.0000
   5296 O          24.2583   -7.8514   23.8659 O.3     1  UNL1        0.0000
   5297 O          28.8648  -11.0594   23.9606 O.3     1  UNL1        0.0000
   5298 O          30.6332    0.8360   16.1887 O.3     1  UNL1        0.0000
   5299 O          29.8187   -8.7979   23.4964 O.3     1  UNL1        0.0000
   5300 O          28.9270   -0.9211   15.6712 O.3     1  UNL1        0.0000
   5301 O          31.2360  -11.9136   25.2626 O.2     1  UNL1        0.0000
   5302 O          29.4835    2.7597   14.4146 O.3     1  UNL1        0.0000
   5303 O          32.0382   -9.1254   25.2575 O.3     1  UNL1        0.0000
   5304 O          27.2475    0.9239   14.3546 O.3     1  UNL1        0.0000
   5305 O          36.7763   -2.0509   14.4008 O.3     1  UNL1        0.0000
   5306 O          22.6220   -6.0113   25.1886 O.3     1  UNL1        0.0000
   5307 O          35.9808   -4.8052   14.4302 O.2     1  UNL1        0.0000
   5308 O          24.8902   -4.2289   25.2699 O.3     1  UNL1        0.0000
   5309 O          31.8485   -1.5939   16.3092 O.3     1  UNL1        0.0000
   5310 O          27.1465   -8.5977   23.2902 O.3     1  UNL1        0.0000
   5311 O          34.3026   -2.8190   13.3764 O.3     1  UNL1        0.0000
   5312 O          29.7349    0.2830   13.2096 O.3     1  UNL1        0.0000
   5313 H          30.9734   -6.7932   21.6967 H       1  UNL1        0.0000
   5314 H          27.0518  -12.5724   20.0492 H       1  UNL1        0.0000
   5315 H          31.7317    2.1215   18.9216 H       1  UNL1        0.0000
   5316 H          32.0816   -5.0534   20.2661 H       1  UNL1        0.0000
   5317 H          27.1378   -5.0110   20.8837 H       1  UNL1        0.0000
   5318 H          23.5539  -10.0710   19.9475 H       1  UNL1        0.0000
   5319 H          28.5103   -6.7779   21.9525 H       1  UNL1        0.0000
   5320 H          28.2519   -3.2515   19.4875 H       1  UNL1        0.0000
   5321 H          32.8354   -0.0545   18.4813 H       1  UNL1        0.0000
   5322 H          19.2419    0.1789   18.9237 H       1  UNL1        0.0000
   5323 C          30.2287   -4.0596   19.7885 C.ar    1  UNL1        0.0000
   5324 C          28.9940   -6.0128   21.3473 C.ar    1  UNL1        0.0000
   5325 C          33.4065    0.7591   18.9291 C.ar    1  UNL1        0.0000
   5326 C          25.3751  -11.2175   20.0644 C.2     1  UNL1        0.0000
   5327 C          28.8326   -4.0340   19.9703 C.ar    1  UNL1        0.0000
   5328 C          30.3844   -6.0275   21.1953 C.ar    1  UNL1        0.0000
   5329 C          32.7804    1.9855   19.1800 C.ar    1  UNL1        0.0000
   5330 C          26.0038  -12.4451   19.7866 C.3     1  UNL1        0.0000
   5331 C          34.7597    0.5728   19.2333 C.ar    1  UNL1        0.0000
   5332 C          24.0216  -11.0285   19.7293 C.3     1  UNL1        0.0000
   5333 C          31.0035   -5.0555   20.4092 C.ar    1  UNL1        0.0000
   5334 C          28.2174   -5.0167   20.7434 C.ar    1  UNL1        0.0000
   5335 O          32.1058   -3.2050   18.5882 O.3     1  UNL1        0.0000
   5336 O          25.4844   -9.0837   21.1213 O.2     1  UNL1        0.0000
   5337 O          27.3087  -10.4034   21.1913 O.2     1  UNL1        0.0000
   5338 O          30.1385   -2.1252   18.4105 O.3     1  UNL1        0.0000
   5339 N          33.1754    2.2205   38.4121 N.pl3  49  UNL49       0.0000
   5340 N          33.6385    1.4883   40.4160 N.pl3  49  UNL49       0.0000
   5341 C          33.7957    0.9903   38.2624 C.2    49  UNL49       0.0000
   5342 C          34.0862    0.5322   39.5200 C.2    49  UNL49       0.0000
   5343 C          34.9532    2.5394   42.2584 C.3    49  UNL49       0.0000
   5344 C          32.8007    3.1351   37.3266 C.3    49  UNL49       0.0000
   5345 C          33.0950    2.5030   39.7218 C.3    49  UNL49       0.0000
   5346 C          33.8921    1.5117   41.8731 C.3    49  UNL49       0.0000
   5347 H          34.0523    0.5847   37.2935 H      49  UNL49       0.0000
   5348 H          34.5868   -0.3697   39.8465 H      49  UNL49       0.0000
   5349 H          35.9145    2.3156   41.7833 H      49  UNL49       0.0000
   5350 H          33.6798    3.2808   36.6898 H      49  UNL49       0.0000
   5351 H          34.6634    3.5519   41.9514 H      49  UNL49       0.0000
   5352 H          31.9805    2.6917   36.7567 H      49  UNL49       0.0000
   5353 H          35.0773    2.5269   43.3486 H      49  UNL49       0.0000
   5354 H          34.2115    0.4976   42.1459 H      49  UNL49       0.0000
   5355 H          32.5069    4.0887   37.7715 H      49  UNL49       0.0000
   5356 H          32.7232    3.4294   40.1353 H      49  UNL49       0.0000
   5357 H          32.9305    1.7028   42.3622 H      49  UNL49       0.0000
   5358 N          35.9849    5.2532   37.9655 N.3    49  UNL49       0.0000
   5359 C          35.8712    6.6343   40.3771 C.3    49  UNL49       0.0000
   5360 C          38.1751    3.7475   38.1534 C.3    49  UNL49       0.0000
   5361 O          34.6388    7.3236   38.1384 O.2    49  UNL49       0.0000
   5362 O          33.8300    5.3106   39.4049 O.2    49  UNL49       0.0000
   5363 O          36.0104    2.9661   36.8973 O.2    49  UNL49       0.0000
   5364 O          35.9680    3.0723   39.4059 O.2    49  UNL49       0.0000
   5365 F          36.9020    7.4577   40.0702 F      49  UNL49       0.0000
   5366 F          38.6324    4.5349   39.1541 F      49  UNL49       0.0000
   5367 F          36.3777    5.5703   41.0562 F      49  UNL49       0.0000
   5368 F          35.0107    7.2983   41.2032 F      49  UNL49       0.0000
   5369 F          38.6629    4.2078   36.9653 F      49  UNL49       0.0000
   5370 F          38.6624    2.4928   38.3405 F      49  UNL49       0.0000
   5371 S          34.9375    6.0875   38.8437 S.O2   49  UNL49       0.0000
   5372 S          36.3135    3.6910   38.1297 S.O2   49  UNL49       0.0000
   5373 TI         19.8741  -13.0176   37.6148 Ti      1  UNL1        0.0000
   5374 TI         30.7046  -10.1364   28.2499 Ti      1  UNL1        0.0000
   5375 TI         23.9708  -16.9538   35.7948 Ti      1  UNL1        0.0000
   5376 TI         25.4820   -7.7917   30.0217 Ti      1  UNL1        0.0000
   5377 TI         24.4834   -6.1134   28.1174 Ti      1  UNL1        0.0000
   5378 TI         25.8590  -17.2082   37.7481 Ti      1  UNL1        0.0000
   5379 TI         20.8233  -14.7535   35.7233 Ti      1  UNL1        0.0000
   5380 TI         28.7168   -9.8339   30.0974 Ti      1  UNL1        0.0000
   5381 H          20.3760   -9.1206   37.3953 H       1  UNL1        0.0000
   5382 H          31.5134  -14.0425   28.5706 H       1  UNL1        0.0000
   5383 H          15.9142  -13.7743   37.2323 H       1  UNL1        0.0000
   5384 H          34.0868   -8.1321   28.4506 H       1  UNL1        0.0000
   5385 H          26.8346  -21.2427   37.3622 H       1  UNL1        0.0000
   5386 H          20.4249   -6.7033   28.4394 H       1  UNL1        0.0000
   5387 H          24.9779   -7.7502   26.2443 H       1  UNL1        0.0000
   5388 H          28.8291  -10.3791   26.5500 H       1  UNL1        0.0000
   5389 H          26.3689  -17.8753   32.2370 H       1  UNL1        0.0000
   5390 H          23.7586   -5.9547   33.6407 H       1  UNL1        0.0000
   5391 H          16.7507  -11.3649   35.3674 H       1  UNL1        0.0000
   5392 H          33.4594  -12.2208   30.5559 H       1  UNL1        0.0000
   5393 H          19.0518  -12.8123   32.0335 H       1  UNL1        0.0000
   5394 H          21.3834   -4.2855   30.4706 H       1  UNL1        0.0000
   5395 H          24.8757   -3.0106   28.9728 H       1  UNL1        0.0000
   5396 H          31.3556  -16.0613   29.7731 H      63  UNL63       0.0000
   5397 H          27.5746   -8.1116   28.6831 H       1  UNL1        0.0000
   5398 H          22.8901  -15.1054   37.0884 H       1  UNL1        0.0000
   5399 H          30.0938  -15.2733   36.1378 H       1  UNL1        0.0000
   5400 H          28.6127  -15.7424   36.8851 H       1  UNL1        0.0000
   5401 H          30.6679  -10.8397   35.0389 H       1  UNL1        0.0000
   5402 H          30.0982  -10.4811   33.4204 H       1  UNL1        0.0000
   5403 H          29.6050  -20.2282   35.9478 H       1  UNL1        0.0000
   5404 H          28.3258  -19.1276   36.4052 H       1  UNL1        0.0000
   5405 C          31.2827  -10.8777   31.1135 C.3     1  UNL1        0.0000
   5406 C          18.9136  -12.7563   34.7677 C.3     1  UNL1        0.0000
   5407 C          26.5513  -17.9645   34.8701 C.3     1  UNL1        0.0000
   5408 C          23.5459   -5.8212   30.9811 C.3     1  UNL1        0.0000
   5409 C          32.1787  -11.4820   32.1087 C.ar    1  UNL1        0.0000
   5410 C          17.9817  -12.1312   33.7907 C.ar    1  UNL1        0.0000
   5411 C          27.4915  -18.5789   33.9229 C.2     1  UNL1        0.0000
   5412 C          22.6561   -5.1744   31.9809 C.ar    1  UNL1        0.0000
   5413 C          31.9299  -11.4071   33.5151 C.ar    1  UNL1        0.0000
   5414 C          18.1981  -12.2512   32.4027 C.ar    1  UNL1        0.0000
   5415 C          28.6210  -19.3392   34.3759 C.2     1  UNL1        0.0000
   5416 C          21.5614   -4.4014   31.5360 C.ar    1  UNL1        0.0000
   5417 C          22.9106   -5.3452   33.3358 C.ar    1  UNL1        0.0000
   5418 C          27.2438  -18.4468   32.5389 C.3     1  UNL1        0.0000
   5419 C          33.3124  -12.1810   31.6330 C.ar    1  UNL1        0.0000
   5420 C          16.8815  -11.4388   34.2894 C.ar    1  UNL1        0.0000
   5421 C          31.4944  -13.9634   26.4265 C.2     1  UNL1        0.0000
   5422 C          25.0247   -2.1718   26.4515 C.ar    1  UNL1        0.0000
   5423 C          33.9789   -8.2003   26.3005 C.ar    1  UNL1        0.0000
   5424 C          20.6205   -6.6579   26.2811 C.ar    1  UNL1        0.0000
   5425 C          26.2287  -10.1349   31.9863 C.3     1  UNL1        0.0000
   5426 C          21.4727  -17.2293   33.9045 C.2     1  UNL1        0.0000
   5427 C          31.3586  -12.5086   26.4033 C.2     1  UNL1        0.0000
   5428 C          24.9319   -3.6053   26.4141 C.3     1  UNL1        0.0000
   5429 C          32.6810   -8.8171   26.3474 C.3     1  UNL1        0.0000
   5430 C          22.0228   -6.2435   26.3056 C.3     1  UNL1        0.0000
   5431 C          31.5338  -14.6325   27.6562 C.3     1  UNL1        0.0000
   5432 C          20.3869   -8.5322   38.3092 C.ar    1  UNL1        0.0000
   5433 C          34.6342   -7.9255   27.5345 C.ar    1  UNL1        0.0000
   5434 C          15.3528  -13.9536   38.1477 C.ar    1  UNL1        0.0000
   5435 C          30.0385  -14.9980   38.1622 C.ar    1  UNL1        0.0000
   5436 C          19.9233   -6.8883   27.4936 C.ar    1  UNL1        0.0000
   5437 C          26.8763  -21.7699   38.3113 C.3     1  UNL1        0.0000
   5438 C          25.0385   -1.4206   27.6808 C.ar    1  UNL1        0.0000
   5439 N          25.0935   -2.0195   28.9190 N.pl3   1  UNL1        0.0000
   5440 N          29.4595  -15.1808   36.9232 N.pl3   1  UNL1        0.0000
   5441 N          30.8490  -10.7608   34.0464 N.pl3   1  UNL1        0.0000
   5442 N          28.9520  -19.4974   35.6933 N.pl3   1  UNL1        0.0000
   5443 O          30.1063  -10.4726   31.4793 O.3     1  UNL1        0.0000
   5444 O          19.6826  -13.7071   34.3694 O.3     1  UNL1        0.0000
   5445 O          26.9328  -17.8401   36.0912 O.3     1  UNL1        0.0000
   5446 O          23.4800   -5.3915   29.7815 O.3     1  UNL1        0.0000
   5447 O          24.3164   -6.7784   31.3676 O.3     1  UNL1        0.0000
   5448 O          25.3809  -17.5961   34.4645 O.3     1  UNL1        0.0000
   5449 O          31.6945  -10.7969   29.9017 O.3     1  UNL1        0.0000
   5450 O          18.8716  -12.3200   35.9674 O.3     1  UNL1        0.0000
   5451 O          29.0220  -11.0518   28.9027 O.3     1  UNL1        0.0000
   5452 O          21.3758  -13.1932   36.4678 O.3     1  UNL1        0.0000
   5453 O          29.9608   -8.7645   29.3527 O.3     1  UNL1        0.0000
   5454 O          19.6236  -14.9179   36.9605 O.3     1  UNL1        0.0000
   5455 O          24.2301  -18.1258   37.0552 O.3     1  UNL1        0.0000
   5456 O          25.9986   -6.2304   29.2833 O.3     1  UNL1        0.0000
   5457 O          25.1841  -15.8643   36.5910 O.3     1  UNL1        0.0000
   5458 O          24.2923   -7.9875   28.7658 O.3     1  UNL1        0.0000
   5459 O          26.6014  -18.9800   38.3572 O.2     1  UNL1        0.0000
   5460 O          24.8488   -4.3068   27.5092 O.3     1  UNL1        0.0000
   5461 O          27.4035  -16.1919   38.3521 O.3     1  UNL1        0.0000
   5462 O          22.6129   -6.1425   27.4492 O.3     1  UNL1        0.0000
   5463 O          32.1417   -9.1173   27.4954 O.3     1  UNL1        0.0000
   5464 O          17.9874  -13.0777   38.2832 O.3     1  UNL1        0.0000
   5465 O          31.3461  -11.8716   27.5248 O.2     1  UNL1        0.0000
   5466 O          20.2556  -11.2954   38.3645 O.3     1  UNL1        0.0000
   5467 O          27.2138   -8.6603   29.4038 O.3     1  UNL1        0.0000
   5468 O          22.5119  -15.6641   36.3848 O.3     1  UNL1        0.0000
   5469 O          29.6679   -9.8855   26.4710 O.3     1  UNL1        0.0000
   5470 O          25.1003   -6.7834   26.3042 O.3     1  UNL1        0.0000
   5471 H          26.3388  -13.8597   34.7913 H       1  UNL1        0.0000
   5472 H          22.4171  -19.6388   33.1438 H       1  UNL1        0.0000
   5473 H          27.0970   -4.9449   32.0162 H       1  UNL1        0.0000
   5474 H          27.4470  -12.1198   33.3607 H       1  UNL1        0.0000
   5475 H          22.5032  -12.0774   33.9783 H       1  UNL1        0.0000
   5476 H          18.9192  -17.1374   33.0422 H       1  UNL1        0.0000
   5477 H          23.8756  -13.8444   35.0471 H       1  UNL1        0.0000
   5478 H          23.6173  -10.3179   32.5821 H       1  UNL1        0.0000
   5479 H          28.2007   -7.1209   31.5759 H       1  UNL1        0.0000
   5480 H          14.6073   -6.8876   32.0183 H       1  UNL1        0.0000
   5481 C          25.5940  -11.1260   32.8831 C.ar    1  UNL1        0.0000
   5482 C          24.3593  -13.0793   34.4420 C.ar    1  UNL1        0.0000
   5483 C          28.7719   -6.3074   32.0237 C.ar    1  UNL1        0.0000
   5484 C          20.7404  -18.2839   33.1590 C.2     1  UNL1        0.0000
   5485 C          24.1980  -11.1005   33.0649 C.ar    1  UNL1        0.0000
   5486 C          25.7498  -13.0940   34.2899 C.ar    1  UNL1        0.0000
   5487 C          28.1458   -5.0809   32.2746 C.ar    1  UNL1        0.0000
   5488 C          21.3692  -19.5116   32.8812 C.3     1  UNL1        0.0000
   5489 C          30.1250   -6.4937   32.3279 C.ar    1  UNL1        0.0000
   5490 C          19.3870  -18.0950   32.8239 C.3     1  UNL1        0.0000
   5491 C          26.3689  -12.1219   33.5038 C.ar    1  UNL1        0.0000
   5492 C          23.5828  -12.0831   33.8380 C.ar    1  UNL1        0.0000
   5493 O          27.4711  -10.2714   31.6828 O.3     1  UNL1        0.0000
   5494 O          20.8497  -16.1501   34.2159 O.2     1  UNL1        0.0000
   5495 O          22.6741  -17.4698   34.2859 O.2     1  UNL1        0.0000
   5496 O          25.5039   -9.1916   31.5051 O.3     1  UNL1        0.0000
   5497 N          28.5408   -4.8460   51.5067 N.pl3  49  UNL49       0.0000
   5498 N          29.0039   -5.5781   53.5106 N.pl3  49  UNL49       0.0000
   5499 C          29.1610   -6.0761   51.3570 C.2    49  UNL49       0.0000
   5500 C          29.4516   -6.5342   52.6146 C.2    49  UNL49       0.0000
   5501 C          30.3186   -4.5270   55.3530 C.3    49  UNL49       0.0000
   5502 C          28.1661   -3.9314   50.4212 C.3    49  UNL49       0.0000
   5503 C          28.4604   -4.5634   52.8164 C.3    49  UNL49       0.0000
   5504 C          29.2575   -5.5547   54.9678 C.3    49  UNL49       0.0000
   5505 H          29.4176   -6.4817   50.3881 H      49  UNL49       0.0000
   5506 H          29.9521   -7.4361   52.9411 H      49  UNL49       0.0000
   5507 H          31.2799   -4.7509   54.8779 H      49  UNL49       0.0000
   5508 H          29.0452   -3.7856   49.7844 H      49  UNL49       0.0000
   5509 H          30.0287   -3.5145   55.0460 H      49  UNL49       0.0000
   5510 H          27.3458   -4.3747   49.8513 H      49  UNL49       0.0000
   5511 H          30.4426   -4.5396   56.4432 H      49  UNL49       0.0000
   5512 H          29.5768   -6.5689   55.2405 H      49  UNL49       0.0000
   5513 H          27.8722   -2.9777   50.8661 H      49  UNL49       0.0000
   5514 H          28.0885   -3.6370   53.2299 H      49  UNL49       0.0000
   5515 H          28.2958   -5.3636   55.4568 H      49  UNL49       0.0000
   5516 N          31.3503   -1.8132   51.0601 N.3    49  UNL49       0.0000
   5517 C          31.2365   -0.4321   53.4717 C.3    49  UNL49       0.0000
   5518 C          33.5404   -3.3189   51.2481 C.3    49  UNL49       0.0000
   5519 O          30.0042    0.2571   51.2331 O.2    49  UNL49       0.0000
   5520 O          29.1954   -1.7559   52.4995 O.2    49  UNL49       0.0000
   5521 O          31.3757   -4.1003   49.9919 O.2    49  UNL49       0.0000
   5522 O          31.3333   -3.9941   52.5005 O.2    49  UNL49       0.0000
   5523 F          32.2673    0.3913   53.1648 F      49  UNL49       0.0000
   5524 F          33.9978   -2.5315   52.2487 F      49  UNL49       0.0000
   5525 F          31.7431   -1.4962   54.1508 F      49  UNL49       0.0000
   5526 F          30.3760    0.2319   54.2978 F      49  UNL49       0.0000
   5527 F          34.0283   -2.8586   50.0599 F      49  UNL49       0.0000
   5528 F          34.0278   -4.5736   51.4351 F      49  UNL49       0.0000
   5529 S          30.3028   -0.9789   51.9383 S.O2   49  UNL49       0.0000
   5530 S          31.6789   -3.3754   51.2243 S.O2   49  UNL49       0.0000
   5531 TI         15.2395  -20.0841   50.7094 Ti      1  UNL1        0.0000
   5532 TI         26.0700  -17.2029   41.3446 Ti      1  UNL1        0.0000
   5533 TI         19.3362  -24.0203   48.8894 Ti      1  UNL1        0.0000
   5534 TI         20.8474  -14.8581   43.1163 Ti      1  UNL1        0.0000
   5535 TI         19.8488  -13.1798   41.2120 Ti      1  UNL1        0.0000
   5536 TI         21.2244  -24.2746   50.8427 Ti      1  UNL1        0.0000
   5537 TI         16.1887  -21.8200   48.8179 Ti      1  UNL1        0.0000
   5538 TI         24.0822  -16.9003   43.1920 Ti      1  UNL1        0.0000
   5539 H          15.7414  -16.1870   50.4899 H      49  UNL49       0.0000
   5540 H          26.8788  -21.1089   41.6652 H       1  UNL1        0.0000
   5541 H          11.2796  -20.8407   50.3269 H      49  UNL49       0.0000
   5542 H          29.4521  -15.1986   41.5452 H       1  UNL1        0.0000
   5543 H          22.2000  -28.3092   50.4568 H      49  UNL49       0.0000
   5544 H          15.7903  -13.7697   41.5340 H       1  UNL1        0.0000
   5545 H          20.3433  -14.8166   39.3389 H       1  UNL1        0.0000
   5546 H          24.1944  -17.4456   39.6446 H       1  UNL1        0.0000
   5547 H          21.7343  -24.9417   45.3316 H       1  UNL1        0.0000
   5548 H          19.1239  -13.0211   46.7353 H       1  UNL1        0.0000
   5549 H          12.1161  -18.4313   48.4620 H       1  UNL1        0.0000
   5550 H          28.8247  -19.2872   43.6506 H       1  UNL1        0.0000
   5551 H          14.4172  -19.8788   45.1281 H       1  UNL1        0.0000
   5552 H          16.7487  -11.3520   43.5652 H       1  UNL1        0.0000
   5553 H          20.2410  -10.0770   42.0674 H       1  UNL1        0.0000
   5554 H          26.7209  -23.1278   42.8677 H      64  UNL64       0.0000
   5555 H          22.9400  -15.1780   41.7777 H       1  UNL1        0.0000
   5556 H          18.2555  -22.1719   50.1830 H       1  UNL1        0.0000
   5557 H          25.4591  -22.3398   49.2324 H      49  UNL49       0.0000
   5558 H          23.9780  -22.8088   49.9797 H      49  UNL49       0.0000
   5559 H          26.0333  -17.9061   48.1335 H       1  UNL1        0.0000
   5560 H          25.4635  -17.5475   46.5150 H       1  UNL1        0.0000
   5561 H          24.9703  -27.2946   49.0424 H       1  UNL1        0.0000
   5562 H          23.6912  -26.1940   49.4998 H       1  UNL1        0.0000
   5563 C          26.6480  -17.9441   44.2081 C.3     1  UNL1        0.0000
   5564 C          14.2790  -19.8227   47.8623 C.3     1  UNL1        0.0000
   5565 C          21.9167  -25.0310   47.9647 C.3     1  UNL1        0.0000
   5566 C          18.9113  -12.8876   44.0757 C.3     1  UNL1        0.0000
   5567 C          27.5440  -18.5484   45.2033 C.ar    1  UNL1        0.0000
   5568 C          13.3470  -19.1977   46.8853 C.ar    1  UNL1        0.0000
   5569 C          22.8569  -25.6453   47.0175 C.2     1  UNL1        0.0000
   5570 C          18.0214  -12.2408   45.0755 C.ar    1  UNL1        0.0000
   5571 C          27.2953  -18.4735   46.6097 C.ar    1  UNL1        0.0000
   5572 C          13.5634  -19.3177   45.4973 C.ar    1  UNL1        0.0000
   5573 C          23.9863  -26.4056   47.4705 C.2     1  UNL1        0.0000
   5574 C          16.9267  -11.4679   44.6306 C.ar    1  UNL1        0.0000
   5575 C          18.2759  -12.4116   46.4304 C.ar    1  UNL1        0.0000
   5576 C          22.6092  -25.5132   45.6335 C.3     1  UNL1        0.0000
   5577 C          28.6777  -19.2474   44.7276 C.ar    1  UNL1        0.0000
   5578 C          12.2469  -18.5053   47.3840 C.ar    1  UNL1        0.0000
   5579 C          26.8598  -21.0298   39.5211 C.2     1  UNL1        0.0000
   5580 C          20.3901   -9.2383   39.5462 C.ar    1  UNL1        0.0000
   5581 C          29.3442  -15.2667   39.3951 C.ar    1  UNL1        0.0000
   5582 C          15.9859  -13.7243   39.3757 C.ar    1  UNL1        0.0000
   5583 C          21.5941  -17.2013   45.0809 C.3     1  UNL1        0.0000
   5584 C          16.8380  -24.2957   46.9991 C.2     1  UNL1        0.0000
   5585 C          26.7239  -19.5750   39.4979 C.2     1  UNL1        0.0000
   5586 C          20.2973  -10.6718   39.5087 C.3     1  UNL1        0.0000
   5587 C          28.0464  -15.8836   39.4420 C.3     1  UNL1        0.0000
   5588 C          17.3882  -13.3100   39.4002 C.3     1  UNL1        0.0000
   5589 C          26.8991  -21.6990   40.7508 C.3     1  UNL1        0.0000
   5590 C          15.7523  -15.5986   51.4038 C.2    49  UNL49       0.0000
   5591 C          29.9995  -14.9919   40.6291 C.ar    1  UNL1        0.0000
   5592 C          10.7181  -21.0201   51.2423 C.2    49  UNL49       0.0000
   5593 C          25.4039  -22.0644   51.2568 C.2    49  UNL49       0.0000
   5594 C          15.2887  -13.9547   40.5882 C.ar    1  UNL1        0.0000
   5595 C          22.2416  -28.8363   51.4059 C.3    65  UNL65       0.0000
   5596 C          20.4038   -8.4871   40.7754 C.ar    1  UNL1        0.0000
   5597 N          20.4589   -9.0859   42.0136 N.pl3   1  UNL1        0.0000
   5598 N          24.8248  -22.2473   50.0178 N.pl3  49  UNL49       0.0000
   5599 N          26.2144  -17.8273   47.1410 N.pl3   1  UNL1        0.0000
   5600 N          24.3173  -26.5639   48.7879 N.pl3   1  UNL1        0.0000
   5601 O          25.4717  -17.5390   44.5739 O.3     1  UNL1        0.0000
   5602 O          15.0479  -20.7736   47.4640 O.3     1  UNL1        0.0000
   5603 O          22.2981  -24.9065   49.1858 O.3     1  UNL1        0.0000
   5604 O          18.8454  -12.4580   42.8761 O.3     1  UNL1        0.0000
   5605 O          19.6817  -13.8448   44.4622 O.3     1  UNL1        0.0000
   5606 O          20.7463  -24.6625   47.5591 O.3     1  UNL1        0.0000
   5607 O          27.0599  -17.8633   42.9963 O.3     1  UNL1        0.0000
   5608 O          14.2369  -19.3864   49.0620 O.3     1  UNL1        0.0000
   5609 O          24.3874  -18.1182   41.9973 O.3     1  UNL1        0.0000
   5610 O          16.7412  -20.2596   49.5624 O.3     1  UNL1        0.0000
   5611 O          25.3262  -15.8309   42.4473 O.3     1  UNL1        0.0000
   5612 O          14.9890  -21.9843   50.0551 O.3     1  UNL1        0.0000
   5613 O          19.5955  -25.1922   50.1498 O.3     1  UNL1        0.0000
   5614 O          21.3639  -13.2968   42.3779 O.3     1  UNL1        0.0000
   5615 O          20.5494  -22.9307   49.6856 O.3     1  UNL1        0.0000
   5616 O          19.6577  -15.0539   41.8604 O.3     1  UNL1        0.0000
   5617 O          21.9667  -26.0465   51.4519 O.3     1  UNL1        0.0000
   5618 O          20.2142  -11.3732   40.6039 O.3     1  UNL1        0.0000
   5619 O          22.7689  -23.2583   51.4467 O.3     1  UNL1        0.0000
   5620 O          17.9783  -13.2089   40.5438 O.3     1  UNL1        0.0000
   5621 O          27.5070  -16.1837   40.5900 O.3     1  UNL1        0.0000
   5622 O          13.3527  -20.1441   51.3778 O.3     1  UNL1        0.0000
   5623 O          26.7115  -18.9381   40.6194 O.2     1  UNL1        0.0000
   5624 O          15.6209  -18.3618   51.4591 O.3     1  UNL1        0.0000
   5625 O          22.5792  -15.7268   42.4984 O.3     1  UNL1        0.0000
   5626 O          17.8772  -22.7306   49.4794 O.3     1  UNL1        0.0000
   5627 O          25.0333  -16.9519   39.5656 O.3     1  UNL1        0.0000
   5628 O          20.4656  -13.8498   39.3988 O.3     1  UNL1        0.0000
   5629 H          21.7041  -20.9261   47.8859 H       1  UNL1        0.0000
   5630 H          17.7825  -26.7053   46.2384 H       1  UNL1        0.0000
   5631 H          22.4624  -12.0113   45.1108 H       1  UNL1        0.0000
   5632 H          22.8123  -19.1863   46.4553 H       1  UNL1        0.0000
   5633 H          17.8685  -19.1439   47.0729 H       1  UNL1        0.0000
   5634 H          14.2846  -24.2039   46.1368 H       1  UNL1        0.0000
   5635 H          19.2410  -20.9108   48.1417 H       1  UNL1        0.0000
   5636 H          18.9827  -17.3843   45.6767 H       1  UNL1        0.0000
   5637 H          23.5661  -14.1873   44.6705 H       1  UNL1        0.0000
   5638 H           9.9726  -13.9540   45.1129 H       1  UNL1        0.0000
   5639 C          20.9594  -18.1924   45.9777 C.ar    1  UNL1        0.0000
   5640 C          19.7247  -20.1457   47.5366 C.ar    1  UNL1        0.0000
   5641 C          24.1372  -13.3738   45.1183 C.ar    1  UNL1        0.0000
   5642 C          16.1058  -25.3504   46.2536 C.2     1  UNL1        0.0000
   5643 C          19.5633  -18.1669   46.1595 C.ar    1  UNL1        0.0000
   5644 C          21.1151  -20.1604   47.3845 C.ar    1  UNL1        0.0000
   5645 C          23.5111  -12.1473   45.3693 C.ar    1  UNL1        0.0000
   5646 C          16.7345  -26.5780   45.9758 C.3     1  UNL1        0.0000
   5647 C          25.4904  -13.5601   45.4225 C.ar    1  UNL1        0.0000
   5648 C          14.7523  -25.1614   45.9185 C.3     1  UNL1        0.0000
   5649 C          21.7342  -19.1884   46.5984 C.ar    1  UNL1        0.0000
   5650 C          18.9481  -19.1496   46.9326 C.ar    1  UNL1        0.0000
   5651 O          22.8365  -17.3379   44.7774 O.3     1  UNL1        0.0000
   5652 O          16.2151  -23.2166   47.3105 O.2     1  UNL1        0.0000
   5653 O          18.0394  -24.5362   47.3805 O.2     1  UNL1        0.0000
   5654 O          20.8692  -16.2580   44.5997 O.3     1  UNL1        0.0000
   5655 N          23.9062  -11.9124   64.6013 N.pl3  49  UNL49       0.0000
   5656 N          24.3692  -12.6446   66.6052 N.pl3  49  UNL49       0.0000
   5657 C          24.5264  -13.1425   64.4516 C.2    49  UNL49       0.0000
   5658 C          24.8169  -13.6007   65.7092 C.2    49  UNL49       0.0000
   5659 C          25.6839  -11.5934   68.4476 C.3    49  UNL49       0.0000
   5660 C          23.5314  -10.9978   63.5158 C.3    49  UNL49       0.0000
   5661 C          23.8257  -11.6299   65.9110 C.3    49  UNL49       0.0000
   5662 C          24.6229  -12.6212   68.0624 C.3    49  UNL49       0.0000
   5663 H          24.7830  -13.5482   63.4828 H      49  UNL49       0.0000
   5664 H          25.3175  -14.5026   66.0358 H      49  UNL49       0.0000
   5665 H          26.6452  -11.8173   67.9725 H      49  UNL49       0.0000
   5666 H          24.4105  -10.8520   62.8790 H      49  UNL49       0.0000
   5667 H          25.3941  -10.5810   68.1406 H      49  UNL49       0.0000
   5668 H          22.7112  -11.4411   62.9460 H      49  UNL49       0.0000
   5669 H          25.8080  -11.6060   69.5378 H      49  UNL49       0.0000
   5670 H          24.9422  -13.6353   68.3351 H      49  UNL49       0.0000
   5671 H          23.2376  -10.0441   63.9607 H      49  UNL49       0.0000
   5672 H          23.4539  -10.7034   66.3245 H      49  UNL49       0.0000
   5673 H          23.6612  -12.4301   68.5514 H      49  UNL49       0.0000
   5674 N          26.7156   -8.8797   64.1547 N.3    49  UNL49       0.0000
   5675 C          26.6019   -7.4986   66.5663 C.3    49  UNL49       0.0000
   5676 C          28.9058  -10.3854   64.3427 C.3    49  UNL49       0.0000
   5677 O          25.3695   -6.8093   64.3277 O.2    49  UNL49       0.0000
   5678 O          24.5607   -8.8223   65.5941 O.2    49  UNL49       0.0000
   5679 O          26.7411  -11.1668   63.0865 O.2    49  UNL49       0.0000
   5680 O          26.6987  -11.0605   65.5951 O.2    49  UNL49       0.0000
   5681 F          27.6327   -6.6752   66.2595 F      49  UNL49       0.0000
   5682 F          29.3631   -9.5980   65.3433 F      49  UNL49       0.0000
   5683 F          27.1084   -8.5626   67.2454 F      49  UNL49       0.0000
   5684 F          25.7414   -6.8346   67.3924 F      49  UNL49       0.0000
   5685 F          29.3936   -9.9250   63.1545 F      49  UNL49       0.0000
   5686 F          29.3931  -11.6401   64.5297 F      49  UNL49       0.0000
   5687 S          25.6682   -8.0454   65.0329 S.O2   49  UNL49       0.0000
   5688 S          27.0442  -10.4418   64.3189 S.O2   49  UNL49       0.0000
   5689 TI         22.6264   15.7277   11.3690 Ti      1  UNL1        0.0000
   5690 TI         33.4569   18.6090    2.0042 Ti      1  UNL1        0.0000
   5691 TI         26.7231   11.7915    9.5490 Ti      1  UNL1        0.0000
   5692 TI         28.2343   20.9537    3.7760 Ti      1  UNL1        0.0000
   5693 TI         27.2357   22.6320    1.8716 Ti      1  UNL1        0.0000
   5694 TI         28.6113   11.5372   11.5024 Ti      1  UNL1        0.0000
   5695 TI         23.5756   13.9918    9.4775 Ti      1  UNL1        0.0000
   5696 TI         31.4691   18.9115    3.8517 Ti      1  UNL1        0.0000
   5697 H          23.1283   19.6248   11.1496 H       1  UNL1        0.0000
   5698 H          34.2657   14.7029    2.3249 H       1  UNL1        0.0000
   5699 H          18.6665   14.9711   10.9866 H       1  UNL1        0.0000
   5700 H          36.8390   20.6133    2.2049 H       1  UNL1        0.0000
   5701 H          29.5869    7.5027   11.1165 H       1  UNL1        0.0000
   5702 H          23.1772   22.0421    2.1937 H       1  UNL1        0.0000
   5703 H          27.7302   20.9952   -0.0015 H       1  UNL1        0.0000
   5704 H          31.5814   18.3663    0.3043 H       1  UNL1        0.0000
   5705 H          29.1212   10.8701    5.9913 H       1  UNL1        0.0000
   5706 H          26.5108   22.7907    7.3950 H       1  UNL1        0.0000
   5707 H          19.5030   17.3805    9.1216 H       1  UNL1        0.0000
   5708 H          36.2116   16.5246    4.3102 H       1  UNL1        0.0000
   5709 H          21.8041   15.9330    5.7878 H       1  UNL1        0.0000
   5710 H          24.1356   24.4598    4.2249 H       1  UNL1        0.0000
   5711 H          27.6280   25.7348    2.7271 H       1  UNL1        0.0000
   5712 H          34.1078   12.6841    3.5274 H       1  UNL1        0.0000
   5713 H          30.3269   20.6338    2.4374 H       1  UNL1        0.0000
   5714 H          25.6424   13.6399   10.8427 H       1  UNL1        0.0000
   5715 H          32.8460   13.4721    9.8921 H       1  UNL1        0.0000
   5716 H          31.3649   13.0030   10.6394 H       1  UNL1        0.0000
   5717 H          33.4202   17.9057    8.7932 H       1  UNL1        0.0000
   5718 H          32.8504   18.2643    7.1746 H       1  UNL1        0.0000
   5719 H          32.3572    8.5172    9.7020 H       1  UNL1        0.0000
   5720 H          31.0781    9.6178   10.1594 H       1  UNL1        0.0000
   5721 C          34.0349   17.8677    4.8677 C.3     1  UNL1        0.0000
   5722 C          21.6659   15.9891    8.5220 C.3     1  UNL1        0.0000
   5723 C          29.3036   10.7808    8.6243 C.3     1  UNL1        0.0000
   5724 C          26.2982   22.9242    4.7354 C.3     1  UNL1        0.0000
   5725 C          34.9309   17.2634    5.8629 C.ar    1  UNL1        0.0000
   5726 C          20.7340   16.6141    7.5449 C.ar    1  UNL1        0.0000
   5727 C          30.2438   10.1665    7.6771 C.ar    1  UNL1        0.0000
   5728 C          25.4084   23.5710    5.7352 C.ar    1  UNL1        0.0000
   5729 C          34.6822   17.3383    7.2693 C.ar    1  UNL1        0.0000
   5730 C          20.9504   16.4942    6.1569 C.ar    1  UNL1        0.0000
   5731 C          31.3732    9.4062    8.1302 C.ar    1  UNL1        0.0000
   5732 C          24.3136   24.3439    5.2902 C.ar    1  UNL1        0.0000
   5733 C          25.6628   23.4002    7.0900 C.ar    1  UNL1        0.0000
   5734 C          29.9961   10.2986    6.2932 C.ar    1  UNL1        0.0000
   5735 C          36.0646   16.5644    5.3872 C.ar    1  UNL1        0.0000
   5736 C          19.6338   17.3066    8.0436 C.ar    1  UNL1        0.0000
   5737 C          34.2467   14.7820    0.1808 C.2     1  UNL1        0.0000
   5738 C          27.7770   26.5736    0.2058 C.2     1  UNL1        0.0000
   5739 C          36.7311   20.5451    0.0548 C.2     1  UNL1        0.0000
   5740 C          23.3728   22.0875    0.0354 C.2     1  UNL1        0.0000
   5741 C          28.9810   18.6105    5.7406 C.3     1  UNL1        0.0000
   5742 C          24.2249   11.5161    7.6587 C.3     1  UNL1        0.0000
   5743 C          34.1108   16.2368    0.1576 C.2     1  UNL1        0.0000
   5744 C          27.6842   25.1400    0.1683 C.2     1  UNL1        0.0000
   5745 C          35.4333   19.9283    0.1017 C.2     1  UNL1        0.0000
   5746 C          24.7751   22.5019    0.0599 C.2     1  UNL1        0.0000
   5747 C          34.2860   14.1129    1.4105 C.2     1  UNL1        0.0000
   5748 C          23.1392   20.2132   12.0635 C.ar    1  UNL1        0.0000
   5749 C          37.3864   20.8199    1.2888 C.2     1  UNL1        0.0000
   5750 C          18.1050   14.7917   11.9019 C.ar    1  UNL1        0.0000
   5751 C          32.7908   13.7474   11.9164 C.ar    1  UNL1        0.0000
   5752 C          22.6756   21.8571    1.2479 C.2     1  UNL1        0.0000
   5753 C          29.6285    6.9755   12.0655 C.ar    1  UNL1        0.0000
   5754 C          27.7907   27.3248    1.4351 C.2     1  UNL1        0.0000
   5755 N          27.8458   26.7259    2.6732 N.pl3   1  UNL1        0.0000
   5756 N          32.2117   13.5645   10.6774 N.pl3   1  UNL1        0.0000
   5757 N          33.6013   17.9846    7.8006 N.pl3   1  UNL1        0.0000
   5758 N          31.7043    9.2479    9.4476 N.pl3   1  UNL1        0.0000
   5759 O          32.8586   18.2728    5.2335 O.3     1  UNL1        0.0000
   5760 O          22.4349   15.0383    8.1237 O.3     1  UNL1        0.0000
   5761 O          29.6851   10.9053    9.8454 O.3     1  UNL1        0.0000
   5762 O          26.2323   23.3539    3.5358 O.3     1  UNL1        0.0000
   5763 O          27.0686   21.9670    5.1218 O.3     1  UNL1        0.0000
   5764 O          28.1332   11.1493    8.2188 O.3     1  UNL1        0.0000
   5765 O          34.4468   17.9485    3.6560 O.3     1  UNL1        0.0000
   5766 O          21.6238   16.4254    9.7217 O.3     1  UNL1        0.0000
   5767 O          31.7743   17.6936    2.6570 O.3     1  UNL1        0.0000
   5768 O          24.1281   15.5522   10.2221 O.3     1  UNL1        0.0000
   5769 O          32.7131   19.9809    3.1070 O.3     1  UNL1        0.0000
   5770 O          22.3759   13.8275   10.7147 O.3     1  UNL1        0.0000
   5771 O          26.9824   10.6196   10.8095 O.3     1  UNL1        0.0000
   5772 O          28.7508   22.5150    3.0375 O.3     1  UNL1        0.0000
   5773 O          27.9363   12.8811   10.3453 O.3     1  UNL1        0.0000
   5774 O          27.0446   20.7579    2.5201 O.3     1  UNL1        0.0000
   5775 O          29.3536    9.7653   12.1115 O.3     1  UNL1        0.0000
   5776 O          27.6011   24.4386    1.2635 O.2     1  UNL1        0.0000
   5777 O          30.1558   12.5535   12.1064 O.3     1  UNL1        0.0000
   5778 O          25.3652   22.6029    1.2034 O.2     1  UNL1        0.0000
   5779 O          34.8940   19.6281    1.2496 O.2     1  UNL1        0.0000
   5780 O          20.7396   15.6677   12.0375 O.3     1  UNL1        0.0000
   5781 O          34.0984   16.8738    1.2790 O.2     1  UNL1        0.0000
   5782 O          23.0078   17.4500   12.1187 O.3     1  UNL1        0.0000
   5783 O          29.9661   20.0851    3.1580 O.3     1  UNL1        0.0000
   5784 O          25.2641   13.0812   10.1391 O.3     1  UNL1        0.0000
   5785 O          32.4202   18.8599    0.2252 O.3     1  UNL1        0.0000
   5786 O          27.8525   21.9620    0.0585 O.3     1  UNL1        0.0000
   5787 H          29.0910   14.8857    8.5456 H       1  UNL1        0.0000
   5788 H          25.1694    9.1065    6.8981 H       1  UNL1        0.0000
   5789 H          29.8493   23.8005    5.7705 H       1  UNL1        0.0000
   5790 H          30.1992   16.6256    7.1149 H       1  UNL1        0.0000
   5791 H          25.2554   16.6679    7.7325 H       1  UNL1        0.0000
   5792 H          21.6715   11.6080    6.7964 H       1  UNL1        0.0000
   5793 H          26.6279   14.9010    8.8013 H       1  UNL1        0.0000
   5794 H          26.3696   18.4275    6.3364 H       1  UNL1        0.0000
   5795 H          30.9530   21.6245    5.3302 H       1  UNL1        0.0000
   5796 H          17.3595   21.8578    5.7725 H       1  UNL1        0.0000
   5797 C          28.3463   17.6194    6.6373 C.ar    1  UNL1        0.0000
   5798 C          27.1116   15.6661    8.1962 C.ar    1  UNL1        0.0000
   5799 C          31.5241   22.4380    5.7779 C.ar    1  UNL1        0.0000
   5800 C          23.4927   10.4615    6.9133 C.ar    1  UNL1        0.0000
   5801 C          26.9502   17.6449    6.8192 C.ar    1  UNL1        0.0000
   5802 C          28.5020   15.6514    8.0441 C.ar    1  UNL1        0.0000
   5803 C          30.8980   23.6645    6.0289 C.ar    1  UNL1        0.0000
   5804 C          24.1214    9.2338    6.6355 C.ar    1  UNL1        0.0000
   5805 C          32.8773   22.2517    6.0822 C.ar    1  UNL1        0.0000
   5806 C          22.1392   10.6504    6.5782 C.ar    1  UNL1        0.0000
   5807 C          29.1211   16.6235    7.2581 C.ar    1  UNL1        0.0000
   5808 C          26.3350   16.6623    7.5922 C.ar    1  UNL1        0.0000
   5809 O          30.2234   18.4740    5.4370 O.3     1  UNL1        0.0000
   5810 O          23.6020   12.5953    7.9702 O.3     1  UNL1        0.0000
   5811 O          25.4263   11.2756    8.0402 O.3     1  UNL1        0.0000
   5812 O          28.2561   19.5538    5.2593 O.3     1  UNL1        0.0000
   5813 N          31.2931   23.8994   25.2610 N.pl3  49  UNL49       0.0000
   5814 N          31.7561   23.1672   27.2649 N.pl3  49  UNL49       0.0000
   5815 C          31.9133   22.6693   25.1112 C.2    49  UNL49       0.0000
   5816 C          32.2038   22.2112   26.3689 C.2    49  UNL49       0.0000
   5817 C          33.0708   24.2184   29.1072 C.3    49  UNL49       0.0000
   5818 C          30.9183   24.8140   24.1754 C.3    49  UNL49       0.0000
   5819 C          31.2126   24.1820   26.5706 C.3    49  UNL49       0.0000
   5820 C          32.0098   23.1906   28.7220 C.3    49  UNL49       0.0000
   5821 H          32.1699   22.2636   24.1424 H      49  UNL49       0.0000
   5822 H          32.7044   21.3093   26.6954 H      49  UNL49       0.0000
   5823 H          34.0322   23.9945   28.6321 H      49  UNL49       0.0000
   5824 H          31.7974   24.9598   23.5387 H      49  UNL49       0.0000
   5825 H          32.7810   25.2309   28.8002 H      49  UNL49       0.0000
   5826 H          30.0981   24.3707   23.6056 H      49  UNL49       0.0000
   5827 H          33.1949   24.2058   30.1975 H      49  UNL49       0.0000
   5828 H          32.3291   22.1765   28.9948 H      49  UNL49       0.0000
   5829 H          30.6245   25.7677   24.6204 H      49  UNL49       0.0000
   5830 H          30.8408   25.1084   26.9842 H      49  UNL49       0.0000
   5831 H          31.0481   23.3818   29.2111 H      49  UNL49       0.0000
   5832 N          34.1025   26.9322   24.8144 N.3    49  UNL49       0.0000
   5833 C          33.9888   28.3132   27.2260 C.3    49  UNL49       0.0000
   5834 C          36.2927   25.4264   25.0023 C.3    49  UNL49       0.0000
   5835 O          32.7564   29.0025   24.9873 O.2    49  UNL49       0.0000
   5836 O          31.9477   26.9895   26.2538 O.2    49  UNL49       0.0000
   5837 O          34.1280   24.6451   23.7462 O.2    49  UNL49       0.0000
   5838 O          34.0856   24.7513   26.2548 O.2    49  UNL49       0.0000
   5839 F          35.0196   29.1366   26.9191 F      49  UNL49       0.0000
   5840 F          36.7500   26.2138   26.0030 F      49  UNL49       0.0000
   5841 F          34.4953   27.2492   27.9051 F      49  UNL49       0.0000
   5842 F          33.1283   28.9772   28.0521 F      49  UNL49       0.0000
   5843 F          36.7806   25.8868   23.8142 F      49  UNL49       0.0000
   5844 F          36.7801   24.1717   25.1894 F      49  UNL49       0.0000
   5845 S          33.0551   27.7664   25.6925 S.O2   49  UNL49       0.0000
   5846 S          34.4311   25.3700   24.9785 S.O2   49  UNL49       0.0000
   5847 TI         17.9918    8.6613   24.4636 Ti      1  UNL1        0.0000
   5848 TI         28.8222   11.5425   15.0988 Ti      1  UNL1        0.0000
   5849 TI         22.0885    4.7251   22.6436 Ti      1  UNL1        0.0000
   5850 TI         23.5996   13.8872   16.8706 Ti      1  UNL1        0.0000
   5851 TI         22.6011   15.5656   14.9662 Ti      1  UNL1        0.0000
   5852 TI         23.9767    4.4708   24.5970 Ti      1  UNL1        0.0000
   5853 TI         18.9410    6.9254   22.5721 Ti      1  UNL1        0.0000
   5854 TI         26.8344   11.8451   16.9463 Ti      1  UNL1        0.0000
   5855 H          18.4936   12.5584   24.2442 H       1  UNL1        0.0000
   5856 H          29.6310    7.6365   15.4195 H       1  UNL1        0.0000
   5857 H          14.0319    7.9047   24.0812 H       1  UNL1        0.0000
   5858 H          32.2044   13.5468   15.2995 H       1  UNL1        0.0000
   5859 H          24.9523    0.4362   24.2111 H       1  UNL1        0.0000
   5860 H          18.5425   14.9757   15.2883 H       1  UNL1        0.0000
   5861 H          23.0955   13.9287   13.0931 H       1  UNL1        0.0000
   5862 H          26.9467   11.2998   13.3989 H       1  UNL1        0.0000
   5863 H          24.4866    3.8037   19.0859 H       1  UNL1        0.0000
   5864 H          21.8762   15.7243   20.4896 H       1  UNL1        0.0000
   5865 H          14.8683   10.3140   22.2162 H       1  UNL1        0.0000
   5866 H          31.5770    9.4582   17.4048 H       1  UNL1        0.0000
   5867 H          17.1695    8.8666   18.8824 H       1  UNL1        0.0000
   5868 H          19.5010   17.3934   17.3195 H       1  UNL1        0.0000
   5869 H          22.9933   18.6684   15.8217 H       1  UNL1        0.0000
   5870 H          29.4732    5.6176   16.6220 H       1  UNL1        0.0000
   5871 H          25.6923   13.5674   15.5320 H       1  UNL1        0.0000
   5872 H          21.0078    6.5735   23.9373 H       1  UNL1        0.0000
   5873 H          28.2114    6.4056   22.9867 H       1  UNL1        0.0000
   5874 H          26.7303    5.9366   23.7340 H       1  UNL1        0.0000
   5875 H          28.7855   10.8393   21.8878 H       1  UNL1        0.0000
   5876 H          28.2158   11.1978   20.2692 H       1  UNL1        0.0000
   5877 H          27.7226    1.4508   22.7966 H       1  UNL1        0.0000
   5878 H          26.4434    2.5514   23.2540 H       1  UNL1        0.0000
   5879 C          29.4003   10.8013   17.9623 C.3     1  UNL1        0.0000
   5880 C          17.0312    8.9227   21.6166 C.3     1  UNL1        0.0000
   5881 C          24.6690    3.7144   21.7189 C.3     1  UNL1        0.0000
   5882 C          21.6635   15.8578   17.8300 C.3     1  UNL1        0.0000
   5883 C          30.2963   10.1970   18.9575 C.ar    1  UNL1        0.0000
   5884 C          16.0993    9.5477   20.6395 C.ar    1  UNL1        0.0000
   5885 C          25.6092    3.1001   20.7717 C.ar    1  UNL1        0.0000
   5886 C          20.7737   16.5046   18.8298 C.ar    1  UNL1        0.0000
   5887 C          30.0475   10.2719   20.3640 C.ar    1  UNL1        0.0000
   5888 C          16.3157    9.4277   19.2515 C.ar    1  UNL1        0.0000
   5889 C          26.7386    2.3398   21.2248 C.ar    1  UNL1        0.0000
   5890 C          19.6790   17.2775   18.3848 C.ar    1  UNL1        0.0000
   5891 C          21.0282   16.3338   20.1846 C.ar    1  UNL1        0.0000
   5892 C          25.3614    3.2322   19.3878 C.ar    1  UNL1        0.0000
   5893 C          31.4300    9.4980   18.4818 C.ar    1  UNL1        0.0000
   5894 C          14.9991   10.2401   21.1382 C.ar    1  UNL1        0.0000
   5895 C          29.6120    7.7155   13.2754 C.ar    1  UNL1        0.0000
   5896 C          23.1423   19.5071   13.3004 C.ar    1  UNL1        0.0000
   5897 C          32.0965   13.4787   13.1494 C.ar    1  UNL1        0.0000
   5898 C          18.7381   15.0211   13.1300 C.ar    1  UNL1        0.0000
   5899 C          24.3464   11.5441   18.8352 C.3     1  UNL1        0.0000
   5900 C          19.5903    4.4497   20.7533 C.3     1  UNL1        0.0000
   5901 C          29.4762    9.1704   13.2522 C.3     1  UNL1        0.0000
   5902 C          23.0496   18.0736   13.2629 C.3     1  UNL1        0.0000
   5903 C          30.7986   12.8618   13.1963 C.3     1  UNL1        0.0000
   5904 C          20.1405   15.4354   13.1545 C.3     1  UNL1        0.0000
   5905 C          29.6514    7.0464   14.5051 C.ar    1  UNL1        0.0000
   5906 C          18.5046   13.1468   25.1581 C.ar    1  UNL1        0.0000
   5907 C          32.7518   13.7535   14.3834 C.ar    1  UNL1        0.0000
   5908 C          13.4704    7.7253   24.9965 C.ar    1  UNL1        0.0000
   5909 C          28.1561    6.6809   25.0110 C.ar    1  UNL1        0.0000
   5910 C          18.0410   14.7907   14.3425 C.ar    1  UNL1        0.0000
   5911 C          24.9939   -0.0909   25.1601 C.ar    1  UNL1        0.0000
   5912 C          23.1561   20.2583   14.5297 C.ar    1  UNL1        0.0000
   5913 N          23.2111   19.6595   15.7679 N.pl3   1  UNL1        0.0000
   5914 N          27.5771    6.4981   23.7721 N.pl3   1  UNL1        0.0000
   5915 N          28.9666   10.9181   20.8952 N.pl3   1  UNL1        0.0000
   5916 N          27.0696    2.1815   22.5422 N.pl3   1  UNL1        0.0000
   5917 O          28.2239   11.2064   18.3281 O.3     1  UNL1        0.0000
   5918 O          17.8002    7.9718   21.2183 O.3     1  UNL1        0.0000
   5919 O          25.0504    3.8389   22.9400 O.3     1  UNL1        0.0000
   5920 O          21.5976   16.2874   16.6304 O.3     1  UNL1        0.0000
   5921 O          22.4340   14.9005   18.2164 O.3     1  UNL1        0.0000
   5922 O          23.4985    4.0828   21.3134 O.3     1  UNL1        0.0000
   5923 O          29.8121   10.8820   16.7506 O.3     1  UNL1        0.0000
   5924 O          16.9892    9.3589   22.8163 O.3     1  UNL1        0.0000
   5925 O          27.1396   10.6272   15.7516 O.3     1  UNL1        0.0000
   5926 O          19.4934    8.4858   23.3167 O.3     1  UNL1        0.0000
   5927 O          28.0784   12.9145   16.2016 O.3     1  UNL1        0.0000
   5928 O          17.7412    6.7611   23.8093 O.3     1  UNL1        0.0000
   5929 O          22.3478    3.5531   23.9041 O.3     1  UNL1        0.0000
   5930 O          24.1162   15.4486   16.1321 O.3     1  UNL1        0.0000
   5931 O          23.3017    5.8146   23.4399 O.3     1  UNL1        0.0000
   5932 O          22.4100   13.6914   15.6147 O.3     1  UNL1        0.0000
   5933 O          24.7190    2.6989   25.2061 O.3     1  UNL1        0.0000
   5934 O          22.9665   17.3722   14.3581 O.3     1  UNL1        0.0000
   5935 O          25.5211    5.4871   25.2010 O.3     1  UNL1        0.0000
   5936 O          20.7305   15.5364   14.2980 O.3     1  UNL1        0.0000
   5937 O          30.2593   12.5616   14.3443 O.3     1  UNL1        0.0000
   5938 O          16.1050    8.6013   25.1321 O.3     1  UNL1        0.0000
   5939 O          29.4637    9.8073   14.3737 O.3     1  UNL1        0.0000
   5940 O          18.3732   10.3836   25.2133 O.3     1  UNL1        0.0000
   5941 O          25.3314   13.0186   16.2527 O.3     1  UNL1        0.0000
   5942 O          20.6295    6.0148   23.2337 O.3     1  UNL1        0.0000
   5943 O          27.7855   11.7935   13.3199 O.3     1  UNL1        0.0000
   5944 O          23.2179   14.8955   13.1531 O.3     1  UNL1        0.0000
   5945 H          24.4564    7.8193   21.6402 H       1  UNL1        0.0000
   5946 H          20.5348    2.0401   19.9927 H       1  UNL1        0.0000
   5947 H          25.2146   16.7340   18.8651 H       1  UNL1        0.0000
   5948 H          25.5646    9.5591   20.2095 H       1  UNL1        0.0000
   5949 H          20.6208    9.6015   20.8271 H       1  UNL1        0.0000
   5950 H          17.0368    4.5415   19.8910 H       1  UNL1        0.0000
   5951 H          21.9932    7.8346   21.8959 H       1  UNL1        0.0000
   5952 H          21.7349   11.3610   19.4310 H       1  UNL1        0.0000
   5953 H          26.3184   14.5580   18.4248 H       1  UNL1        0.0000
   5954 H          12.7249   14.7914   18.8671 H       1  UNL1        0.0000
   5955 C          23.7117   10.5530   19.7320 C.ar    1  UNL1        0.0000
   5956 C          22.4769    8.5997   21.2908 C.ar    1  UNL1        0.0000
   5957 C          26.8895   15.3716   18.8726 C.ar    1  UNL1        0.0000
   5958 C          18.8580    3.3950   20.0079 C.ar    1  UNL1        0.0000
   5959 C          22.3156   10.5785   19.9138 C.ar    1  UNL1        0.0000
   5960 C          23.8674    8.5850   21.1387 C.ar    1  UNL1        0.0000
   5961 C          26.2634   16.5980   19.1235 C.ar    1  UNL1        0.0000
   5962 C          19.4868    2.1674   19.7301 C.ar    1  UNL1        0.0000
   5963 C          28.2426   15.1853   19.1768 C.ar    1  UNL1        0.0000
   5964 C          17.5046    3.5840   19.6728 C.ar    1  UNL1        0.0000
   5965 C          24.4865    9.5570   20.3527 C.ar    1  UNL1        0.0000
   5966 C          21.7004    9.5958   20.6868 C.ar    1  UNL1        0.0000
   5967 O          25.5887   11.4075   18.5316 O.3     1  UNL1        0.0000
   5968 O          18.9674    5.5288   21.0648 O.3     1  UNL1        0.0000
   5969 O          20.7917    4.2091   21.1348 O.3     1  UNL1        0.0000
   5970 O          23.6215   12.4873   18.3539 O.3     1  UNL1        0.0000
   5971 N          26.6584   16.8330   38.3556 N.pl3  49  UNL49       0.0000
   5972 N          27.1215   16.1008   40.3595 N.pl3  49  UNL49       0.0000
   5973 C          27.2786   15.6029   38.2059 C.2    49  UNL49       0.0000
   5974 C          27.5692   15.1447   39.4635 C.2    49  UNL49       0.0000
   5975 C          28.4362   17.1519   42.2018 C.3    49  UNL49       0.0000
   5976 C          26.2837   17.7476   37.2701 C.3    49  UNL49       0.0000
   5977 C          26.5780   17.1155   39.6653 C.3    49  UNL49       0.0000
   5978 C          27.3751   16.1242   41.8166 C.3    49  UNL49       0.0000
   5979 H          27.5352   15.1972   37.2370 H      49  UNL49       0.0000
   5980 H          28.0697   14.2428   39.7900 H      49  UNL49       0.0000
   5981 H          29.3975   16.9281   41.7267 H      49  UNL49       0.0000
   5982 H          27.1628   17.8933   36.6333 H      49  UNL49       0.0000
   5983 H          28.1463   18.1644   41.8948 H      49  UNL49       0.0000
   5984 H          25.4634   17.3042   36.7002 H      49  UNL49       0.0000
   5985 H          28.5602   17.1394   43.2921 H      49  UNL49       0.0000
   5986 H          27.6944   15.1101   42.0894 H      49  UNL49       0.0000
   5987 H          25.9898   18.7013   37.7150 H      49  UNL49       0.0000
   5988 H          26.2062   18.0419   40.0788 H      49  UNL49       0.0000
   5989 H          26.4134   16.3153   42.3057 H      49  UNL49       0.0000
   5990 N          29.4679   19.8657   37.9090 N.3    49  UNL49       0.0000
   5991 C          29.3541   21.2468   40.3206 C.3    49  UNL49       0.0000
   5992 C          31.6580   18.3600   38.0969 C.3    49  UNL49       0.0000
   5993 O          28.1218   21.9361   38.0819 O.2    49  UNL49       0.0000
   5994 O          27.3130   19.9231   39.3484 O.2    49  UNL49       0.0000
   5995 O          29.4933   17.5786   36.8408 O.2    49  UNL49       0.0000
   5996 O          29.4509   17.6848   39.3494 O.2    49  UNL49       0.0000
   5997 F          30.3850   22.0702   40.0137 F      49  UNL49       0.0000
   5998 F          32.1154   19.1474   39.0976 F      49  UNL49       0.0000
   5999 F          29.8607   20.1828   40.9997 F      49  UNL49       0.0000
   6000 F          28.4936   21.9108   41.1467 F      49  UNL49       0.0000
   6001 F          32.1459   18.8204   36.9088 F      49  UNL49       0.0000
   6002 F          32.1454   17.1053   38.2840 F      49  UNL49       0.0000
   6003 S          28.4204   20.7000   38.7871 S.O2   49  UNL49       0.0000
   6004 S          29.7965   18.3035   38.0731 S.O2   49  UNL49       0.0000
   6005 TI         13.3571    1.5949   37.5582 Ti      1  UNL1        0.0000
   6006 TI         24.1876    4.4761   28.1934 Ti      1  UNL1        0.0000
   6007 TI         17.4538   -2.3413   35.7383 Ti      1  UNL1        0.0000
   6008 TI         18.9650    6.8208   29.9652 Ti      1  UNL1        0.0000
   6009 TI         17.9664    8.4991   28.0608 Ti      1  UNL1        0.0000
   6010 TI         19.3420   -2.5957   37.6916 Ti      1  UNL1        0.0000
   6011 TI         14.3063   -0.1410   35.6668 Ti      1  UNL1        0.0000
   6012 TI         22.1998    4.7786   30.0409 Ti      1  UNL1        0.0000
   6013 H          13.8590    5.4920   37.3388 H       1  UNL1        0.0000
   6014 H          24.9964    0.5700   28.5141 H       1  UNL1        0.0000
   6015 H           9.3972    0.8382   37.1758 H       1  UNL1        0.0000
   6016 H          27.5697    6.4804   28.3941 H       1  UNL1        0.0000
   6017 H          20.3176   -6.6302   37.3057 H       1  UNL1        0.0000
   6018 H          13.9079    7.9092   28.3829 H       1  UNL1        0.0000
   6019 H          18.4609    6.8623   26.1878 H       1  UNL1        0.0000
   6020 H          22.3121    4.2334   26.4935 H       1  UNL1        0.0000
   6021 H          19.8519   -3.2628   32.1805 H       1  UNL1        0.0000
   6022 H          17.2416    8.6578   33.5842 H       1  UNL1        0.0000
   6023 H          10.2337    3.2476   35.3108 H       1  UNL1        0.0000
   6024 H          26.9423    2.3918   30.4994 H       1  UNL1        0.0000
   6025 H          12.5348    1.8002   31.9770 H       1  UNL1        0.0000
   6026 H          14.8663   10.3270   30.4141 H       1  UNL1        0.0000
   6027 H          18.3587   11.6019   28.9163 H       1  UNL1        0.0000
   6028 H          24.8385   -1.4488   29.7166 H       1  UNL1        0.0000
   6029 H          21.0576    6.5009   28.6266 H       1  UNL1        0.0000
   6030 H          16.3731   -0.4929   37.0319 H       1  UNL1        0.0000
   6031 H          23.5767   -0.6608   36.0813 H       1  UNL1        0.0000
   6032 H          22.0956   -1.1299   36.8286 H       1  UNL1        0.0000
   6033 H          24.1509    3.7728   34.9824 H       1  UNL1        0.0000
   6034 H          23.5811    4.1314   33.3638 H       1  UNL1        0.0000
   6035 H          23.0879   -5.6156   35.8913 H       1  UNL1        0.0000
   6036 H          21.8088   -4.5151   36.3486 H       1  UNL1        0.0000
   6037 C          24.7656    3.7348   31.0570 C.3     1  UNL1        0.0000
   6038 C          12.3966    1.8563   34.7112 C.3     1  UNL1        0.0000
   6039 C          20.0343   -3.3520   34.8135 C.3     1  UNL1        0.0000
   6040 C          17.0289    8.7913   30.9246 C.3     1  UNL1        0.0000
   6041 C          25.6616    3.1305   32.0521 C.ar    1  UNL1        0.0000
   6042 C          11.4647    2.4813   33.7342 C.ar    1  UNL1        0.0000
   6043 C          20.9745   -3.9664   33.8663 C.ar    1  UNL1        0.0000
   6044 C          16.1391    9.4381   31.9244 C.ar    1  UNL1        0.0000
   6045 C          25.4129    3.2054   33.4586 C.ar    1  UNL1        0.0000
   6046 C          11.6811    2.3613   32.3461 C.ar    1  UNL1        0.0000
   6047 C          22.1040   -4.7267   34.3194 C.ar    1  UNL1        0.0000
   6048 C          15.0443   10.2111   31.4794 C.ar    1  UNL1        0.0000
   6049 C          16.3936    9.2674   33.2793 C.ar    1  UNL1        0.0000
   6050 C          20.7268   -3.8342   32.4824 C.ar    1  UNL1        0.0000
   6051 C          26.7953    2.4315   31.5764 C.ar    1  UNL1        0.0000
   6052 C          10.3645    3.1737   34.2328 C.ar    1  UNL1        0.0000
   6053 C          24.9774    0.6491   26.3700 C.ar    1  UNL1        0.0000
   6054 C          18.5077   12.4407   26.3950 C.ar    1  UNL1        0.0000
   6055 C          27.4618    6.4122   26.2440 C.ar    1  UNL1        0.0000
   6056 C          14.1035    7.9547   26.2246 C.ar    1  UNL1        0.0000
   6057 C          19.7117    4.4776   31.9298 C.3     1  UNL1        0.0000
   6058 C          14.9556   -2.6167   33.8480 C.3     1  UNL1        0.0000
   6059 C          24.8415    2.1040   26.3468 C.3     1  UNL1        0.0000
   6060 C          18.4149   11.0072   26.3575 C.3     1  UNL1        0.0000
   6061 C          26.1640    5.7954   26.2909 C.3     1  UNL1        0.0000
   6062 C          15.5058    8.3690   26.2491 C.3     1  UNL1        0.0000
   6063 C          25.0167   -0.0200   27.5997 C.ar    1  UNL1        0.0000
   6064 C          13.8699    6.0804   38.2527 C.ar    1  UNL1        0.0000
   6065 C          28.1171    6.6870   27.4780 C.ar    1  UNL1        0.0000
   6066 C           8.8357    0.6589   38.0911 C.ar    1  UNL1        0.0000
   6067 C          23.5215   -0.3855   38.1056 C.ar    1  UNL1        0.0000
   6068 C          13.4063    7.7242   27.4371 C.ar    1  UNL1        0.0000
   6069 C          20.3593   -7.1574   38.2548 C.ar    1  UNL1        0.0000
   6070 C          18.5214   13.1919   27.6243 C.ar    1  UNL1        0.0000
   6071 N          18.5765   12.5930   28.8625 N.pl3   1  UNL1        0.0000
   6072 N          22.9425   -0.5683   36.8667 N.pl3   1  UNL1        0.0000
   6073 N          24.3320    3.8517   33.9899 N.pl3   1  UNL1        0.0000
   6074 N          22.4350   -4.8849   35.6368 N.pl3   1  UNL1        0.0000
   6075 O          23.5893    4.1399   31.4227 O.3     1  UNL1        0.0000
   6076 O          13.1656    0.9054   34.3129 O.3     1  UNL1        0.0000
   6077 O          20.4158   -3.2276   36.0346 O.3     1  UNL1        0.0000
   6078 O          16.9630    9.2210   29.7250 O.3     1  UNL1        0.0000
   6079 O          17.7993    7.8341   31.3110 O.3     1  UNL1        0.0000
   6080 O          18.8639   -2.9836   34.4080 O.3     1  UNL1        0.0000
   6081 O          25.1775    3.8156   29.8452 O.3     1  UNL1        0.0000
   6082 O          12.3546    2.2925   35.9109 O.3     1  UNL1        0.0000
   6083 O          22.5050    3.5607   28.8462 O.3     1  UNL1        0.0000
   6084 O          14.8588    1.4193   36.4113 O.3     1  UNL1        0.0000
   6085 O          23.4438    5.8480   29.2962 O.3     1  UNL1        0.0000
   6086 O          13.1066   -0.3053   36.9039 O.3     1  UNL1        0.0000
   6087 O          17.7131   -3.5133   36.9987 O.3     1  UNL1        0.0000
   6088 O          19.4815    8.3821   29.2267 O.3     1  UNL1        0.0000
   6089 O          18.6671   -1.2518   36.5345 O.3     1  UNL1        0.0000
   6090 O          17.7753    6.6250   28.7093 O.3     1  UNL1        0.0000
   6091 O          20.0843   -4.3675   38.3007 O.3     1  UNL1        0.0000
   6092 O          18.3318   10.3057   27.4527 O.3     1  UNL1        0.0000
   6093 O          20.8865   -1.5793   38.2956 O.3     1  UNL1        0.0000
   6094 O          16.0959    8.4700   27.3927 O.3     1  UNL1        0.0000
   6095 O          25.6247    5.4952   27.4389 O.3     1  UNL1        0.0000
   6096 O          11.4703    1.5348   38.2267 O.3     1  UNL1        0.0000
   6097 O          24.8291    2.7409   27.4683 O.3     1  UNL1        0.0000
   6098 O          13.7385    3.3172   38.3079 O.3     1  UNL1        0.0000
   6099 O          20.6968    5.9522   29.3473 O.3     1  UNL1        0.0000
   6100 O          15.9948   -1.0516   36.3283 O.3     1  UNL1        0.0000
   6101 O          23.1509    4.7271   26.4145 O.3     1  UNL1        0.0000
   6102 O          18.5832    7.8291   26.2477 O.3     1  UNL1        0.0000
   6103 H          19.8218    0.7528   34.7348 H       1  UNL1        0.0000
   6104 H          15.9001   -5.0263   33.0873 H       1  UNL1        0.0000
   6105 H          20.5800    9.6676   31.9597 H       1  UNL1        0.0000
   6106 H          20.9299    2.4927   33.3042 H       1  UNL1        0.0000
   6107 H          15.9861    2.5351   33.9218 H       1  UNL1        0.0000
   6108 H          12.4022   -2.5249   32.9856 H       1  UNL1        0.0000
   6109 H          17.3586    0.7682   34.9905 H       1  UNL1        0.0000
   6110 H          17.1003    4.2946   32.5256 H       1  UNL1        0.0000
   6111 H          21.6837    7.4916   31.5194 H       1  UNL1        0.0000
   6112 H           8.0902    7.7250   31.9618 H       1  UNL1        0.0000
   6113 C          19.0770    3.4865   32.8266 C.ar    1  UNL1        0.0000
   6114 C          17.8423    1.5332   34.3854 C.ar    1  UNL1        0.0000
   6115 C          22.2548    8.3051   31.9672 C.ar    1  UNL1        0.0000
   6116 C          14.2234   -3.6714   33.1025 C.ar    1  UNL1        0.0000
   6117 C          17.6809    3.5121   33.0084 C.ar    1  UNL1        0.0000
   6118 C          19.2327    1.5185   34.2334 C.ar    1  UNL1        0.0000
   6119 C          21.6287    9.5316   32.2181 C.ar    1  UNL1        0.0000
   6120 C          14.8521   -4.8991   32.8247 C.ar    1  UNL1        0.0000
   6121 C          23.6080    8.1188   32.2714 C.ar    1  UNL1        0.0000
   6122 C          12.8699   -3.4824   32.7674 C.ar    1  UNL1        0.0000
   6123 C          19.8518    2.4906   33.4473 C.ar    1  UNL1        0.0000
   6124 C          17.0657    2.5294   33.7815 C.ar    1  UNL1        0.0000
   6125 O          20.9541    4.3411   31.6263 O.3     1  UNL1        0.0000
   6126 O          14.3327   -1.5376   34.1594 O.3     1  UNL1        0.0000
   6127 O          16.1570   -2.8573   34.2294 O.3     1  UNL1        0.0000
   6128 O          18.9868    5.4209   31.4486 O.3     1  UNL1        0.0000
   6129 N          22.0238    9.7666   51.4502 N.pl3  49  UNL49       0.0000
   6130 N          22.4869    9.0344   53.4541 N.pl3  49  UNL49       0.0000
   6131 C          22.6440    8.5364   51.3005 C.2    49  UNL49       0.0000
   6132 C          22.9346    8.0783   52.5581 C.2    49  UNL49       0.0000
   6133 C          23.8015   10.0855   55.2965 C.3    49  UNL49       0.0000
   6134 C          21.6490   10.6811   50.3647 C.3    49  UNL49       0.0000
   6135 C          21.9433   10.0491   52.7599 C.3    49  UNL49       0.0000
   6136 C          22.7405    9.0578   54.9112 C.3    49  UNL49       0.0000
   6137 H          22.9006    8.1308   50.3316 H      49  UNL49       0.0000
   6138 H          23.4351    7.1764   52.8846 H      49  UNL49       0.0000
   6139 H          24.7629    9.8617   54.8213 H      49  UNL49       0.0000
   6140 H          22.5281   10.8269   49.7279 H      49  UNL49       0.0000
   6141 H          23.5117   11.0980   54.9894 H      49  UNL49       0.0000
   6142 H          20.8288   10.2378   49.7948 H      49  UNL49       0.0000
   6143 H          23.9256   10.0729   56.3867 H      49  UNL49       0.0000
   6144 H          23.0598    8.0436   55.1840 H      49  UNL49       0.0000
   6145 H          21.3552   11.6348   50.8096 H      49  UNL49       0.0000
   6146 H          21.5715   10.9755   53.1734 H      49  UNL49       0.0000
   6147 H          21.7788    9.2489   55.4003 H      49  UNL49       0.0000
   6148 N          24.8333   12.7993   51.0036 N.3    49  UNL49       0.0000
   6149 C          24.7195   14.1804   53.4152 C.3    49  UNL49       0.0000
   6150 C          27.0234   11.2936   51.1915 C.3    49  UNL49       0.0000
   6151 O          23.4871   14.8697   51.1765 O.2    49  UNL49       0.0000
   6152 O          22.6784   12.8566   52.4430 O.2    49  UNL49       0.0000
   6153 O          24.8587   10.5122   49.9354 O.2    49  UNL49       0.0000
   6154 O          24.8163   10.6184   52.4440 O.2    49  UNL49       0.0000
   6155 F          25.7503   15.0038   53.1083 F      49  UNL49       0.0000
   6156 F          27.4807   12.0810   52.1922 F      49  UNL49       0.0000
   6157 F          25.2260   13.1163   54.0943 F      49  UNL49       0.0000
   6158 F          23.8590   14.8444   54.2413 F      49  UNL49       0.0000
   6159 F          27.5113   11.7539   50.0034 F      49  UNL49       0.0000
   6160 F          27.5108   10.0389   51.3786 F      49  UNL49       0.0000
   6161 S          23.7858   13.6336   51.8818 S.O2   49  UNL49       0.0000
   6162 S          25.1618   11.2371   51.1677 S.O2   49  UNL49       0.0000
   6163 TI          8.7225   -5.4716   50.6528 Ti      1  UNL1        0.0000
   6164 TI         19.5529   -2.5904   41.2880 Ti      1  UNL1        0.0000
   6165 TI         12.8192   -9.4078   48.8329 Ti      1  UNL1        0.0000
   6166 TI         14.3303   -0.2456   43.0598 Ti      1  UNL1        0.0000
   6167 TI         13.3318    1.4327   41.1554 Ti      1  UNL1        0.0000
   6168 TI         14.7074   -9.6621   50.7862 Ti      1  UNL1        0.0000
   6169 TI          9.6717   -7.2075   48.7614 Ti      1  UNL1        0.0000
   6170 TI         17.5651   -2.2878   43.1355 Ti      1  UNL1        0.0000
   6171 H           9.2243   -1.5745   50.4334 H      49  UNL49       0.0000
   6172 H          20.3617   -6.4964   41.6087 H       1  UNL1        0.0000
   6173 H           4.7626   -6.2282   50.2704 H      49  UNL49       0.0000
   6174 H          22.9351   -0.5861   41.4887 H       1  UNL1        0.0000
   6175 H          15.6830  -13.6966   50.4003 H      49  UNL49       0.0000
   6176 H           9.2732    0.8428   41.4775 H       1  UNL1        0.0000
   6177 H          13.8262   -0.2041   39.2824 H       1  UNL1        0.0000
   6178 H          17.6774   -2.8330   39.5881 H       1  UNL1        0.0000
   6179 H          15.2173  -10.3292   45.2751 H       1  UNL1        0.0000
   6180 H          12.6069    1.5914   46.6788 H       1  UNL1        0.0000
   6181 H           5.5991   -3.8188   48.4055 H       1  UNL1        0.0000
   6182 H          22.3077   -4.6747   43.5940 H       1  UNL1        0.0000
   6183 H           7.9002   -5.2663   45.0716 H       1  UNL1        0.0000
   6184 H          10.2317    3.2605   43.5087 H       1  UNL1        0.0000
   6185 H          13.7240    4.5355   42.0109 H       1  UNL1        0.0000
   6186 H          20.2039   -8.5152   42.8112 H       1  UNL1        0.0000
   6187 H          16.4230   -0.5655   41.7212 H       1  UNL1        0.0000
   6188 H          11.7385   -7.5594   50.1265 H       1  UNL1        0.0000
   6189 H          18.9421   -7.7273   49.1759 H      49  UNL49       0.0000
   6190 H          17.4610   -8.1963   49.9232 H      49  UNL49       0.0000
   6191 H          19.5162   -3.2936   48.0770 H       1  UNL1        0.0000
   6192 H          18.9465   -2.9350   46.4584 H       1  UNL1        0.0000
   6193 H          18.4533  -12.6821   48.9859 H       1  UNL1        0.0000
   6194 H          17.1741  -11.5815   49.4433 H       1  UNL1        0.0000
   6195 C          20.1310   -3.3316   44.1516 C.3     1  UNL1        0.0000
   6196 C           7.7619   -5.2102   47.8058 C.3     1  UNL1        0.0000
   6197 C          15.3997  -10.4185   47.9081 C.3     1  UNL1        0.0000
   6198 C          12.3942    1.7249   44.0192 C.3     1  UNL1        0.0000
   6199 C          21.0270   -3.9359   45.1468 C.ar    1  UNL1        0.0000
   6200 C           6.8300   -4.5852   46.8288 C.ar    1  UNL1        0.0000
   6201 C          16.3399  -11.0328   46.9610 C.ar    1  UNL1        0.0000
   6202 C          11.5044    2.3717   45.0190 C.ar    1  UNL1        0.0000
   6203 C          20.7782   -3.8610   46.5532 C.ar    1  UNL1        0.0000
   6204 C           7.0464   -4.7051   45.4407 C.ar    1  UNL1        0.0000
   6205 C          17.4693  -11.7931   47.4140 C.ar    1  UNL1        0.0000
   6206 C          10.4097    3.1446   44.5741 C.ar    1  UNL1        0.0000
   6207 C          11.7589    2.2009   46.3739 C.ar    1  UNL1        0.0000
   6208 C          16.0922  -10.9007   45.5770 C.ar    1  UNL1        0.0000
   6209 C          22.1607   -4.6349   44.6710 C.ar    1  UNL1        0.0000
   6210 C           5.7299   -3.8928   47.3274 C.ar    1  UNL1        0.0000
   6211 C          20.3428   -6.4173   39.4646 C.ar    1  UNL1        0.0000
   6212 C          13.8730    5.3743   39.4896 C.ar    1  UNL1        0.0000
   6213 C          22.8272   -0.6542   39.3386 C.ar    1  UNL1        0.0000
   6214 C           9.4689    0.8882   39.3192 C.ar    1  UNL1        0.0000
   6215 C          15.0771   -2.5888   45.0244 C.3     1  UNL1        0.0000
   6216 C          10.3210   -9.6832   46.9426 C.3     1  UNL1        0.0000
   6217 C          20.2069   -4.9625   39.4414 C.3     1  UNL1        0.0000
   6218 C          13.7803    3.9407   39.4521 C.3     1  UNL1        0.0000
   6219 C          21.5294   -1.2711   39.3855 C.3     1  UNL1        0.0000
   6220 C          10.8712    1.3026   39.3437 C.3     1  UNL1        0.0000
   6221 C          20.3821   -7.0865   40.6943 C.ar    1  UNL1        0.0000
   6222 C           9.2353   -0.9861   51.3473 C.2    49  UNL49       0.0000
   6223 C          23.4825   -0.3794   40.5726 C.ar    1  UNL1        0.0000
   6224 C           4.2011   -6.4076   51.1857 C.2    49  UNL49       0.0000
   6225 C          18.8868   -7.4519   51.2002 C.2    49  UNL49       0.0000
   6226 C           8.7717    0.6578   40.5317 C.ar    1  UNL1        0.0000
   6227 C          15.7246  -14.2238   51.3494 C.2    49  UNL49       0.0000
   6228 C          13.8868    6.1254   40.7189 C.ar    1  UNL1        0.0000
   6229 N          13.9419    5.5266   41.9571 N.pl3   1  UNL1        0.0000
   6230 N          18.3078   -7.6348   49.9613 N.pl3  49  UNL49       0.0000
   6231 N          19.6974   -3.2147   47.0845 N.pl3   1  UNL1        0.0000
   6232 N          17.8003  -11.9514   48.7314 N.pl3   1  UNL1        0.0000
   6233 O          18.9547   -2.9265   44.5174 O.3     1  UNL1        0.0000
   6234 O           8.5309   -6.1610   47.4075 O.3     1  UNL1        0.0000
   6235 O          15.7811  -10.2940   49.1293 O.3     1  UNL1        0.0000
   6236 O          12.3284    2.1545   42.8196 O.3     1  UNL1        0.0000
   6237 O          13.1647    0.7677   44.4056 O.3     1  UNL1        0.0000
   6238 O          14.2292  -10.0500   47.5026 O.3     1  UNL1        0.0000
   6239 O          20.5429   -3.2508   42.9398 O.3     1  UNL1        0.0000
   6240 O           7.7199   -4.7739   49.0055 O.3     1  UNL1        0.0000
   6241 O          17.8704   -3.5057   41.9408 O.3     1  UNL1        0.0000
   6242 O          10.2241   -5.6471   49.5059 O.3     1  UNL1        0.0000
   6243 O          18.8091   -1.2184   42.3908 O.3     1  UNL1        0.0000
   6244 O           8.4720   -7.3718   49.9986 O.3     1  UNL1        0.0000
   6245 O          13.0785  -10.5797   50.0933 O.3     1  UNL1        0.0000
   6246 O          14.8469    1.3157   42.3214 O.3     1  UNL1        0.0000
   6247 O          14.0324   -8.3182   49.6291 O.3     1  UNL1        0.0000
   6248 O          13.1407   -0.4414   41.8039 O.3     1  UNL1        0.0000
   6249 O          15.4497  -11.4340   51.3953 O.3     1  UNL1        0.0000
   6250 O          13.6972    3.2393   40.5473 O.3     1  UNL1        0.0000
   6251 O          16.2518   -8.6458   51.3902 O.3     1  UNL1        0.0000
   6252 O          11.4612    1.4036   40.4873 O.3     1  UNL1        0.0000
   6253 O          20.9900   -1.5712   40.5335 O.3     1  UNL1        0.0000
   6254 O           6.8357   -5.5316   51.3213 O.3     1  UNL1        0.0000
   6255 O          20.1945   -4.3256   40.5629 O.3     1  UNL1        0.0000
   6256 O           9.1039   -3.7493   51.4026 O.3     1  UNL1        0.0000
   6257 O          16.0621   -1.1143   42.4419 O.3     1  UNL1        0.0000
   6258 O          11.3602   -8.1181   49.4229 O.3     1  UNL1        0.0000
   6259 O          18.5162   -2.3394   39.5091 O.3     1  UNL1        0.0000
   6260 O          13.9486    0.7627   39.3423 O.3     1  UNL1        0.0000
   6261 H          15.1871   -6.3136   47.8294 H       1  UNL1        0.0000
   6262 H          11.2655  -12.0928   46.1819 H       1  UNL1        0.0000
   6263 H          15.9453    2.6012   45.0543 H       1  UNL1        0.0000
   6264 H          16.2953   -4.5738   46.3988 H       1  UNL1        0.0000
   6265 H          11.3515   -4.5314   47.0164 H       1  UNL1        0.0000
   6266 H           7.7675   -9.5914   46.0802 H       1  UNL1        0.0000
   6267 H          12.7240   -6.2983   48.0852 H       1  UNL1        0.0000
   6268 H          12.4656   -2.7718   45.6202 H       1  UNL1        0.0000
   6269 H          17.0491    0.4252   44.6140 H       1  UNL1        0.0000
   6270 H           3.4556    0.6585   45.0564 H       1  UNL1        0.0000
   6271 C          14.4424   -3.5799   45.9212 C.ar    1  UNL1        0.0000
   6272 C          13.2076   -5.5332   47.4800 C.ar    1  UNL1        0.0000
   6273 C          17.6202    1.2387   45.0618 C.ar    1  UNL1        0.0000
   6274 C           9.5887  -10.7379   46.1971 C.ar    1  UNL1        0.0000
   6275 C          13.0463   -3.5544   46.1030 C.ar    1  UNL1        0.0000
   6276 C          14.5981   -5.5479   47.3280 C.ar    1  UNL1        0.0000
   6277 C          16.9941    2.4652   45.3127 C.ar    1  UNL1        0.0000
   6278 C          10.2175  -11.9655   45.9193 C.ar    1  UNL1        0.0000
   6279 C          18.9733    1.0524   45.3660 C.ar    1  UNL1        0.0000
   6280 C           8.2353  -10.5489   45.8620 C.ar    1  UNL1        0.0000
   6281 C          15.2172   -4.5758   46.5419 C.ar    1  UNL1        0.0000
   6282 C          12.4311   -4.5371   46.8761 C.ar    1  UNL1        0.0000
   6283 O          16.3194   -2.7253   44.7209 O.3     1  UNL1        0.0000
   6284 O           9.6981   -8.6041   47.2540 O.3     1  UNL1        0.0000
   6285 O          11.5224   -9.9237   47.3240 O.3     1  UNL1        0.0000
   6286 O          14.3522   -1.6455   44.5432 O.3     1  UNL1        0.0000
   6287 N          17.3891    2.7001   64.5448 N.pl3  49  UNL49       0.0000
   6288 N          17.8522    1.9679   66.5487 N.pl3  49  UNL49       0.0000
   6289 C          18.0093    1.4700   64.3951 C.2    49  UNL49       0.0000
   6290 C          18.2999    1.0118   65.6527 C.2    49  UNL49       0.0000
   6291 C          19.1669    3.0191   68.3911 C.3    49  UNL49       0.0000
   6292 C          17.0144    3.6147   63.4593 C.3    49  UNL49       0.0000
   6293 C          17.3087    2.9826   65.8545 C.3    49  UNL49       0.0000
   6294 C          18.1058    1.9913   68.0058 C.3    49  UNL49       0.0000
   6295 H          18.2659    1.0643   63.4262 H      49  UNL49       0.0000
   6296 H          18.8004    0.1100   65.9792 H      49  UNL49       0.0000
   6297 H          20.1282    2.7952   67.9160 H      49  UNL49       0.0000
   6298 H          17.8935    3.7605   62.8225 H      49  UNL49       0.0000
   6299 H          18.8770    4.0315   68.0841 H      49  UNL49       0.0000
   6300 H          16.1942    3.1714   62.8894 H      49  UNL49       0.0000
   6301 H          19.2909    3.0065   69.4813 H      49  UNL49       0.0000
   6302 H          18.4252    0.9772   68.2786 H      49  UNL49       0.0000
   6303 H          16.7205    4.5684   63.9042 H      49  UNL49       0.0000
   6304 H          16.9369    3.9091   66.2680 H      49  UNL49       0.0000
   6305 H          17.1441    2.1825   68.4949 H      49  UNL49       0.0000
   6306 N          20.1986    5.7328   64.0982 N.3    49  UNL49       0.0000
   6307 C          20.0848    7.1139   66.5098 C.3    49  UNL49       0.0000
   6308 C          22.3887    4.2271   64.2861 C.3    49  UNL49       0.0000
   6309 O          18.8525    7.8032   64.2711 O.2    49  UNL49       0.0000
   6310 O          18.0437    5.7902   65.5376 O.2    49  UNL49       0.0000
   6311 O          20.2240    3.4458   63.0300 O.2    49  UNL49       0.0000
   6312 O          20.1817    3.5520   65.5386 O.2    49  UNL49       0.0000
   6313 F          21.1157    7.9373   66.2029 F      49  UNL49       0.0000
   6314 F          22.8461    5.0145   65.2868 F      49  UNL49       0.0000
   6315 F          20.5914    6.0499   67.1889 F      49  UNL49       0.0000
   6316 F          19.2243    7.7779   67.3359 F      49  UNL49       0.0000
   6317 F          22.8766    4.6875   63.0980 F      49  UNL49       0.0000
   6318 F          22.8761    2.9724   64.4732 F      49  UNL49       0.0000
   6319 S          19.1511    6.5671   64.9764 S.O2   49  UNL49       0.0000
   6320 S          20.5272    4.1707   64.2624 S.O2   49  UNL49       0.0000
   6321 TI         16.1094   30.3402   11.3125 Ti      1  UNL1        0.0000
   6322 TI         26.9399   33.2215    1.9477 Ti      1  UNL1        0.0000
   6323 TI         20.2061   26.4041    9.4925 Ti      1  UNL1        0.0000
   6324 TI         21.7173   35.5662    3.7195 Ti      1  UNL1        0.0000
   6325 TI         20.7187   37.2445    1.8151 Ti      1  UNL1        0.0000
   6326 TI         22.0943   26.1497   11.4459 Ti      1  UNL1        0.0000
   6327 TI         17.0586   28.6044    9.4210 Ti      1  UNL1        0.0000
   6328 TI         24.9520   33.5240    3.7952 Ti      1  UNL1        0.0000
   6329 H          16.6113   34.2373   11.0930 H       1  UNL1        0.0000
   6330 H          27.7486   29.3154    2.2684 H       1  UNL1        0.0000
   6331 H          12.1495   29.5836   10.9300 H       1  UNL1        0.0000
   6332 H          30.3220   35.2258    2.1483 H       1  UNL1        0.0000
   6333 H          23.0699   22.1152   11.0600 H       1  UNL1        0.0000
   6334 H          16.6602   36.6546    2.1372 H       1  UNL1        0.0000
   6335 H          21.2131   35.6077   -0.0580 H       1  UNL1        0.0000
   6336 H          25.0643   32.9788    0.2478 H       1  UNL1        0.0000
   6337 H          22.6042   25.4826    5.9348 H       1  UNL1        0.0000
   6338 H          19.9938   37.4032    7.3384 H       1  UNL1        0.0000
   6339 H          12.9860   31.9930    9.0651 H       1  UNL1        0.0000
   6340 H          29.6946   31.1371    4.2537 H       1  UNL1        0.0000
   6341 H          15.2871   30.5455    5.7313 H       1  UNL1        0.0000
   6342 H          17.6186   39.0724    4.1683 H       1  UNL1        0.0000
   6343 H          21.1109   40.3473    2.6706 H       1  UNL1        0.0000
   6344 H          27.5908   27.2966    3.4709 H       1  UNL1        0.0000
   6345 H          23.8099   35.2463    2.3809 H       1  UNL1        0.0000
   6346 H          19.1254   28.2524   10.7861 H       1  UNL1        0.0000
   6347 H          26.3290   28.0846    9.8355 H       1  UNL1        0.0000
   6348 H          24.8479   27.6155   10.5829 H       1  UNL1        0.0000
   6349 H          26.9031   32.5182    8.7366 H       1  UNL1        0.0000
   6350 H          26.3334   32.8768    7.1181 H       1  UNL1        0.0000
   6351 H          25.8402   23.1297    9.6455 H       1  UNL1        0.0000
   6352 H          24.5611   24.2303   10.1029 H       1  UNL1        0.0000
   6353 C          27.5179   32.4802    4.8112 C.3     1  UNL1        0.0000
   6354 C          15.1488   30.6016    8.4655 C.3     1  UNL1        0.0000
   6355 C          22.7866   25.3933    8.5678 C.3     1  UNL1        0.0000
   6356 C          19.7811   37.5367    4.6788 C.3     1  UNL1        0.0000
   6357 C          28.4139   31.8759    5.8064 C.ar    1  UNL1        0.0000
   6358 C          14.2169   31.2267    7.4884 C.ar    1  UNL1        0.0000
   6359 C          23.7268   24.7790    7.6206 C.ar    1  UNL1        0.0000
   6360 C          18.8913   38.1835    5.6786 C.ar    1  UNL1        0.0000
   6361 C          28.1651   31.9508    7.2128 C.ar    1  UNL1        0.0000
   6362 C          14.4333   31.1067    6.1004 C.ar    1  UNL1        0.0000
   6363 C          24.8562   24.0187    8.0737 C.ar    1  UNL1        0.0000
   6364 C          17.7966   38.9565    5.2337 C.ar    1  UNL1        0.0000
   6365 C          19.1458   38.0127    7.0335 C.ar    1  UNL1        0.0000
   6366 C          23.4791   24.9111    6.2367 C.ar    1  UNL1        0.0000
   6367 C          29.5476   31.1769    5.3307 C.ar    1  UNL1        0.0000
   6368 C          13.1168   31.9191    7.9871 C.ar    1  UNL1        0.0000
   6369 C          27.7297   29.3945    0.1243 C.2     1  UNL1        0.0000
   6370 C          21.2599   41.1861    0.1493 C.2     1  UNL1        0.0000
   6371 C          30.2141   35.1576   -0.0017 C.2     1  UNL1        0.0000
   6372 C          16.8558   36.7000   -0.0211 C.2     1  UNL1        0.0000
   6373 C          22.4640   33.2230    5.6841 C.3     1  UNL1        0.0000
   6374 C          17.7079   26.1286    7.6022 C.3     1  UNL1        0.0000
   6375 C          27.5938   30.8493    0.1011 C.2     1  UNL1        0.0000
   6376 C          21.1672   39.7526    0.1118 C.2     1  UNL1        0.0000
   6377 C          28.9163   34.5408    0.0451 C.2     1  UNL1        0.0000
   6378 C          18.2581   37.1144    0.0033 C.2     1  UNL1        0.0000
   6379 C          27.7690   28.7254    1.3540 C.2     1  UNL1        0.0000
   6380 C          16.6222   34.8257   12.0069 C.ar    1  UNL1        0.0000
   6381 C          30.8694   35.4324    1.2322 C.2     1  UNL1        0.0000
   6382 C          11.5880   29.4042   11.8454 C.ar    1  UNL1        0.0000
   6383 C          26.2738   28.3599   11.8599 C.ar    1  UNL1        0.0000
   6384 C          16.1586   36.4696    1.1914 C.2     1  UNL1        0.0000
   6385 C          23.1115   21.5880   12.0090 C.ar    1  UNL1        0.0000
   6386 C          21.2737   41.9373    1.3786 C.2     1  UNL1        0.0000
   6387 N          21.3288   41.3384    2.6167 N.pl3   1  UNL1        0.0000
   6388 N          25.6947   28.1770   10.6209 N.pl3   1  UNL1        0.0000
   6389 N          27.0843   32.5971    7.7441 N.pl3   1  UNL1        0.0000
   6390 N          25.1872   23.8604    9.3911 N.pl3   1  UNL1        0.0000
   6391 O          26.3416   32.8853    5.1770 O.3     1  UNL1        0.0000
   6392 O          15.9178   29.6508    8.0672 O.3     1  UNL1        0.0000
   6393 O          23.1680   25.5178    9.7889 O.3     1  UNL1        0.0000
   6394 O          19.7153   37.9664    3.4792 O.3     1  UNL1        0.0000
   6395 O          20.5516   36.5795    5.0653 O.3     1  UNL1        0.0000
   6396 O          21.6161   25.7618    8.1623 O.3     1  UNL1        0.0000
   6397 O          27.9298   32.5610    3.5995 O.3     1  UNL1        0.0000
   6398 O          15.1068   31.0379    9.6652 O.3     1  UNL1        0.0000
   6399 O          25.2573   32.3061    2.6005 O.3     1  UNL1        0.0000
   6400 O          17.6110   30.1647   10.1655 O.3     1  UNL1        0.0000
   6401 O          26.1960   34.5934    3.0504 O.3     1  UNL1        0.0000
   6402 O          15.8589   28.4400   10.6582 O.3     1  UNL1        0.0000
   6403 O          20.4654   25.2321   10.7529 O.3     1  UNL1        0.0000
   6404 O          22.2338   37.1275    2.9810 O.3     1  UNL1        0.0000
   6405 O          21.4193   27.4936   10.2888 O.3     1  UNL1        0.0000
   6406 O          20.5276   35.3704    2.4636 O.3     1  UNL1        0.0000
   6407 O          22.8366   24.3778   12.0550 O.3     1  UNL1        0.0000
   6408 O          21.0841   39.0511    1.2070 O.2     1  UNL1        0.0000
   6409 O          23.6387   27.1660   12.0499 O.3     1  UNL1        0.0000
   6410 O          18.8481   37.2154    1.1469 O.2     1  UNL1        0.0000
   6411 O          28.3769   34.2406    1.1931 O.2     1  UNL1        0.0000
   6412 O          14.2226   30.2802   11.9809 O.3     1  UNL1        0.0000
   6413 O          27.5814   31.4863    1.2225 O.2     1  UNL1        0.0000
   6414 O          16.4908   32.0625   12.0622 O.3     1  UNL1        0.0000
   6415 O          23.4490   34.6976    3.1015 O.3     1  UNL1        0.0000
   6416 O          18.7471   27.6938   10.0825 O.3     1  UNL1        0.0000
   6417 O          25.9032   33.4724    0.1687 O.3     1  UNL1        0.0000
   6418 O          21.3355   36.5745    0.0020 O.3     1  UNL1        0.0000
   6419 H          22.5740   29.4982    8.4891 H       1  UNL1        0.0000
   6420 H          18.6524   23.7190    6.8415 H       1  UNL1        0.0000
   6421 H          23.3322   38.4130    5.7139 H       1  UNL1        0.0000
   6422 H          23.6822   31.2381    7.0584 H       1  UNL1        0.0000
   6423 H          18.7384   31.2804    7.6760 H       1  UNL1        0.0000
   6424 H          15.1544   26.2205    6.7399 H       1  UNL1        0.0000
   6425 H          20.1109   29.5135    8.7448 H       1  UNL1        0.0000
   6426 H          19.8525   33.0400    6.2799 H       1  UNL1        0.0000
   6427 H          24.4360   36.2370    5.2736 H       1  UNL1        0.0000
   6428 H          10.8425   36.4703    5.7160 H       1  UNL1        0.0000
   6429 C          21.8293   32.2319    6.5808 C.ar    1  UNL1        0.0000
   6430 C          20.5946   30.2786    8.1397 C.ar    1  UNL1        0.0000
   6431 C          25.0071   37.0505    5.7214 C.ar    1  UNL1        0.0000
   6432 C          16.9757   25.0740    6.8568 C.ar    1  UNL1        0.0000
   6433 C          20.4332   32.2574    6.7626 C.ar    1  UNL1        0.0000
   6434 C          21.9850   30.2639    7.9876 C.ar    1  UNL1        0.0000
   6435 C          24.3810   38.2770    5.9724 C.ar    1  UNL1        0.0000
   6436 C          17.6044   23.8463    6.5790 C.ar    1  UNL1        0.0000
   6437 C          26.3603   36.8642    6.0257 C.ar    1  UNL1        0.0000
   6438 C          15.6222   25.2629    6.5217 C.ar    1  UNL1        0.0000
   6439 C          22.6041   31.2360    7.2016 C.ar    1  UNL1        0.0000
   6440 C          19.8180   31.2748    7.5357 C.ar    1  UNL1        0.0000
   6441 O          23.7063   33.0865    5.3805 O.3     1  UNL1        0.0000
   6442 O          17.0850   27.2078    7.9137 O.3     1  UNL1        0.0000
   6443 O          18.9093   25.8881    7.9837 O.3     1  UNL1        0.0000
   6444 O          21.7391   34.1663    5.2028 O.3     1  UNL1        0.0000
   6445 N          24.7760   38.5119   25.2045 N.pl3  49  UNL49       0.0000
   6446 N          25.2391   37.7797   27.2084 N.pl3  49  UNL49       0.0000
   6447 C          25.3962   37.2818   25.0547 C.2    49  UNL49       0.0000
   6448 C          25.6868   36.8237   26.3124 C.2    49  UNL49       0.0000
   6449 C          26.5538   38.8309   29.0507 C.3    49  UNL49       0.0000
   6450 C          24.4013   39.4265   24.1189 C.3    49  UNL49       0.0000
   6451 C          24.6956   38.7945   26.5141 C.3    49  UNL49       0.0000
   6452 C          25.4927   37.8032   28.6655 C.3    49  UNL49       0.0000
   6453 H          25.6528   36.8762   24.0859 H      49  UNL49       0.0000
   6454 H          26.1873   35.9218   26.6389 H      49  UNL49       0.0000
   6455 H          27.5151   38.6070   28.5756 H      49  UNL49       0.0000
   6456 H          25.2804   39.5723   23.4821 H      49  UNL49       0.0000
   6457 H          26.2639   39.8434   28.7437 H      49  UNL49       0.0000
   6458 H          23.5811   38.9832   23.5491 H      49  UNL49       0.0000
   6459 H          26.6779   38.8183   30.1410 H      49  UNL49       0.0000
   6460 H          25.8121   36.7890   28.9382 H      49  UNL49       0.0000
   6461 H          24.1074   40.3802   24.5639 H      49  UNL49       0.0000
   6462 H          24.3238   39.7209   26.9277 H      49  UNL49       0.0000
   6463 H          24.5310   37.9943   29.1546 H      49  UNL49       0.0000
   6464 N          27.5855   41.5447   24.7579 N.3    49  UNL49       0.0000
   6465 C          27.4718   42.9258   27.1695 C.3    49  UNL49       0.0000
   6466 C          29.7757   40.0390   24.9458 C.3    49  UNL49       0.0000
   6467 O          26.2394   43.6150   24.9308 O.2    49  UNL49       0.0000
   6468 O          25.4306   41.6020   26.1973 O.2    49  UNL49       0.0000
   6469 O          27.6109   39.2576   23.6897 O.2    49  UNL49       0.0000
   6470 O          27.5686   39.3638   26.1983 O.2    49  UNL49       0.0000
   6471 F          28.5026   43.7491   26.8626 F      49  UNL49       0.0000
   6472 F          30.2330   40.8263   25.9464 F      49  UNL49       0.0000
   6473 F          27.9783   41.8617   27.8485 F      49  UNL49       0.0000
   6474 F          26.6113   43.5898   27.9956 F      49  UNL49       0.0000
   6475 F          30.2635   40.4993   23.7577 F      49  UNL49       0.0000
   6476 F          30.2630   38.7843   25.1329 F      49  UNL49       0.0000
   6477 S          26.5381   42.3789   25.6360 S.O2   49  UNL49       0.0000
   6478 S          27.9141   39.9825   24.9220 S.O2   49  UNL49       0.0000
   6479 TI         11.4747   23.2738   24.4071 Ti      1  UNL1        0.0000
   6480 TI         22.3052   26.1550   15.0423 Ti      1  UNL1        0.0000
   6481 TI         15.5714   19.3376   22.5871 Ti      1  UNL1        0.0000
   6482 TI         17.0826   28.4998   16.8141 Ti      1  UNL1        0.0000
   6483 TI         16.0840   30.1781   14.9097 Ti      1  UNL1        0.0000
   6484 TI         17.4596   19.0833   24.5405 Ti      1  UNL1        0.0000
   6485 TI         12.4239   21.5379   22.5156 Ti      1  UNL1        0.0000
   6486 TI         20.3174   26.4576   16.8898 Ti      1  UNL1        0.0000
   6487 H          11.9766   27.1709   24.1877 H       1  UNL1        0.0000
   6488 H          23.1140   22.2490   15.3630 H       1  UNL1        0.0000
   6489 H           7.5148   22.5172   24.0247 H       1  UNL1        0.0000
   6490 H          25.6874   28.1593   15.2430 H       1  UNL1        0.0000
   6491 H          18.4352   15.0487   24.1546 H       1  UNL1        0.0000
   6492 H          12.0255   29.5882   15.2318 H       1  UNL1        0.0000
   6493 H          16.5785   28.5413   13.0366 H       1  UNL1        0.0000
   6494 H          20.4297   25.9123   13.3424 H       1  UNL1        0.0000
   6495 H          17.9695   18.4162   19.0294 H       1  UNL1        0.0000
   6496 H          15.3592   30.3368   20.4331 H       1  UNL1        0.0000
   6497 H           8.3513   24.9265   22.1597 H       1  UNL1        0.0000
   6498 H          25.0600   24.0707   17.3483 H       1  UNL1        0.0000
   6499 H          10.6524   23.4791   18.8259 H       1  UNL1        0.0000
   6500 H          12.9840   32.0059   17.2629 H       1  UNL1        0.0000
   6501 H          16.4763   33.2809   15.7652 H       1  UNL1        0.0000
   6502 H          22.9562   20.2301   16.5655 H       1  UNL1        0.0000
   6503 H          19.1752   28.1799   15.4755 H       1  UNL1        0.0000
   6504 H          14.4907   21.1860   23.8808 H       1  UNL1        0.0000
   6505 H          21.6944   21.0181   22.9302 H       1  UNL1        0.0000
   6506 H          20.2132   20.5491   23.6775 H       1  UNL1        0.0000
   6507 H          22.2685   25.4518   21.8313 H       1  UNL1        0.0000
   6508 H          21.6988   25.8103   20.2127 H       1  UNL1        0.0000
   6509 H          21.2056   16.0633   22.7401 H       1  UNL1        0.0000
   6510 H          19.9264   17.1639   23.1975 H       1  UNL1        0.0000
   6511 C          22.8832   25.4138   17.9058 C.3     1  UNL1        0.0000
   6512 C          10.5142   23.5352   21.5601 C.3     1  UNL1        0.0000
   6513 C          18.1519   18.3269   21.6624 C.3     1  UNL1        0.0000
   6514 C          15.1465   30.4703   17.7735 C.3     1  UNL1        0.0000
   6515 C          23.7793   24.8095   18.9010 C.ar    1  UNL1        0.0000
   6516 C           9.5823   24.1602   20.5830 C.ar    1  UNL1        0.0000
   6517 C          19.0921   17.7126   20.7152 C.ar    1  UNL1        0.0000
   6518 C          14.2567   31.1171   18.7732 C.ar    1  UNL1        0.0000
   6519 C          23.5305   24.8844   20.3074 C.ar    1  UNL1        0.0000
   6520 C           9.7987   24.0402   19.1950 C.ar    1  UNL1        0.0000
   6521 C          20.2216   16.9523   21.1683 C.ar    1  UNL1        0.0000
   6522 C          13.1619   31.8900   18.3283 C.ar    1  UNL1        0.0000
   6523 C          14.5112   30.9463   20.1281 C.ar    1  UNL1        0.0000
   6524 C          18.8444   17.8447   19.3313 C.ar    1  UNL1        0.0000
   6525 C          24.9129   24.1105   18.4253 C.ar    1  UNL1        0.0000
   6526 C           8.4821   24.8526   21.0817 C.ar    1  UNL1        0.0000
   6527 C          23.0950   22.3280   13.2189 C.ar    1  UNL1        0.0000
   6528 C          16.6253   34.1196   13.2439 C.ar    1  UNL1        0.0000
   6529 C          25.5795   28.0912   13.0929 C.ar    1  UNL1        0.0000
   6530 C          12.2211   29.6336   13.0735 C.ar    1  UNL1        0.0000
   6531 C          17.8293   26.1566   18.7787 C.3     1  UNL1        0.0000
   6532 C          13.0732   19.0622   20.6968 C.3     1  UNL1        0.0000
   6533 C          22.9592   23.7829   13.1957 C.3     1  UNL1        0.0000
   6534 C          16.5325   32.6861   13.2064 C.3     1  UNL1        0.0000
   6535 C          24.2816   27.4743   13.1397 C.3     1  UNL1        0.0000
   6536 C          13.6234   30.0479   13.0980 C.3     1  UNL1        0.0000
   6537 C          23.1344   21.6589   14.4486 C.ar    1  UNL1        0.0000
   6538 C          11.9875   27.7593   25.1015 C.ar    1  UNL1        0.0000
   6539 C          26.2348   28.3660   14.3268 C.ar    1  UNL1        0.0000
   6540 C           6.9533   22.3378   24.9400 C.ar    1  UNL1        0.0000
   6541 C          21.6391   21.2934   24.9545 C.ar    1  UNL1        0.0000
   6542 C          11.5239   29.4032   14.2860 C.ar    1  UNL1        0.0000
   6543 C          18.4769   14.5216   25.1036 C.ar    1  UNL1        0.0000
   6544 C          16.6391   34.8708   14.4732 C.ar    1  UNL1        0.0000
   6545 N          16.6941   34.2720   15.7113 N.pl3   1  UNL1        0.0000
   6546 N          21.0601   21.1106   23.7155 N.pl3   1  UNL1        0.0000
   6547 N          22.4496   25.5306   20.8387 N.pl3   1  UNL1        0.0000
   6548 N          20.5526   16.7940   22.4857 N.pl3   1  UNL1        0.0000
   6549 O          21.7069   25.8189   18.2716 O.3     1  UNL1        0.0000
   6550 O          11.2832   22.5843   21.1618 O.3     1  UNL1        0.0000
   6551 O          18.5334   18.4514   22.8835 O.3     1  UNL1        0.0000
   6552 O          15.0806   30.8999   16.5739 O.3     1  UNL1        0.0000
   6553 O          15.9170   29.5130   18.1599 O.3     1  UNL1        0.0000
   6554 O          16.9815   18.6954   21.2569 O.3     1  UNL1        0.0000
   6555 O          23.2951   25.4945   16.6941 O.3     1  UNL1        0.0000
   6556 O          10.4722   23.9714   22.7598 O.3     1  UNL1        0.0000
   6557 O          20.6226   25.2397   15.6951 O.3     1  UNL1        0.0000
   6558 O          12.9764   23.0983   23.2601 O.3     1  UNL1        0.0000
   6559 O          21.5614   27.5270   16.1450 O.3     1  UNL1        0.0000
   6560 O          11.2242   21.3736   23.7528 O.3     1  UNL1        0.0000
   6561 O          15.8307   18.1657   23.8475 O.3     1  UNL1        0.0000
   6562 O          17.5992   30.0611   16.0756 O.3     1  UNL1        0.0000
   6563 O          16.7847   20.4271   23.3834 O.3     1  UNL1        0.0000
   6564 O          15.8929   28.3040   15.5582 O.3     1  UNL1        0.0000
   6565 O          18.2019   17.3114   25.1496 O.3     1  UNL1        0.0000
   6566 O          16.4494   31.9847   14.3016 O.3     1  UNL1        0.0000
   6567 O          19.0041   20.0996   25.1445 O.3     1  UNL1        0.0000
   6568 O          14.2135   30.1489   14.2415 O.3     1  UNL1        0.0000
   6569 O          23.7423   27.1742   14.2877 O.3     1  UNL1        0.0000
   6570 O           9.5879   23.2138   25.0755 O.3     1  UNL1        0.0000
   6571 O          22.9467   24.4198   14.3171 O.3     1  UNL1        0.0000
   6572 O          11.8561   24.9961   25.1568 O.3     1  UNL1        0.0000
   6573 O          18.8144   27.6311   16.1961 O.3     1  UNL1        0.0000
   6574 O          14.1125   20.6273   23.1772 O.3     1  UNL1        0.0000
   6575 O          21.2685   26.4060   13.2633 O.3     1  UNL1        0.0000
   6576 O          16.7009   29.5081   13.0966 O.3     1  UNL1        0.0000
   6577 H          17.9394   22.4318   21.5837 H       1  UNL1        0.0000
   6578 H          14.0177   16.6526   19.9361 H       1  UNL1        0.0000
   6579 H          18.6976   31.3465   18.8086 H       1  UNL1        0.0000
   6580 H          19.0476   24.1716   20.1530 H       1  UNL1        0.0000
   6581 H          14.1038   24.2140   20.7706 H       1  UNL1        0.0000
   6582 H          10.5198   19.1540   19.8345 H       1  UNL1        0.0000
   6583 H          15.4762   22.4471   21.8394 H       1  UNL1        0.0000
   6584 H          15.2179   25.9736   19.3745 H       1  UNL1        0.0000
   6585 H          19.8013   29.1705   18.3683 H       1  UNL1        0.0000
   6586 H           6.2078   29.4039   18.8106 H       1  UNL1        0.0000
   6587 C          17.1946   25.1655   19.6754 C.ar    1  UNL1        0.0000
   6588 C          15.9599   23.2122   21.2343 C.ar    1  UNL1        0.0000
   6589 C          20.3725   29.9841   18.8160 C.ar    1  UNL1        0.0000
   6590 C          12.3410   18.0075   19.9514 C.ar    1  UNL1        0.0000
   6591 C          15.7986   25.1910   19.8573 C.ar    1  UNL1        0.0000
   6592 C          17.3503   23.1975   21.0822 C.ar    1  UNL1        0.0000
   6593 C          19.7464   31.2106   19.0670 C.ar    1  UNL1        0.0000
   6594 C          12.9698   16.7799   19.6736 C.ar    1  UNL1        0.0000
   6595 C          21.7256   29.7978   19.1203 C.ar    1  UNL1        0.0000
   6596 C          10.9876   18.1965   19.6163 C.ar    1  UNL1        0.0000
   6597 C          17.9695   24.1695   20.2962 C.ar    1  UNL1        0.0000
   6598 C          15.1834   24.2083   20.6303 C.ar    1  UNL1        0.0000
   6599 O          19.0717   26.0200   18.4751 O.3     1  UNL1        0.0000
   6600 O          12.4503   20.1413   21.0083 O.3     1  UNL1        0.0000
   6601 O          14.2747   18.8216   21.0783 O.3     1  UNL1        0.0000
   6602 O          17.1045   27.0999   18.2974 O.3     1  UNL1        0.0000
   6603 N          20.1414   31.4455   38.2991 N.pl3  49  UNL49       0.0000
   6604 N          20.6045   30.7133   40.3030 N.pl3  49  UNL49       0.0000
   6605 C          20.7616   30.2154   38.1493 C.2    49  UNL49       0.0000
   6606 C          21.0522   29.7572   39.4070 C.2    49  UNL49       0.0000
   6607 C          21.9191   31.7645   42.1453 C.3    49  UNL49       0.0000
   6608 C          19.7666   32.3601   37.2135 C.3    49  UNL49       0.0000
   6609 C          20.0610   31.7280   39.6087 C.3    49  UNL49       0.0000
   6610 C          20.8581   30.7367   41.7601 C.3    49  UNL49       0.0000
   6611 H          21.0182   29.8097   37.1805 H      49  UNL49       0.0000
   6612 H          21.5527   28.8553   39.7335 H      49  UNL49       0.0000
   6613 H          22.8805   31.5406   41.6702 H      49  UNL49       0.0000
   6614 H          20.6458   32.5059   36.5768 H      49  UNL49       0.0000
   6615 H          21.6293   32.7769   41.8383 H      49  UNL49       0.0000
   6616 H          18.9464   31.9167   36.6437 H      49  UNL49       0.0000
   6617 H          22.0432   31.7519   43.2356 H      49  UNL49       0.0000
   6618 H          21.1774   29.7226   42.0329 H      49  UNL49       0.0000
   6619 H          19.4728   33.3138   37.6585 H      49  UNL49       0.0000
   6620 H          19.6891   32.6544   40.0223 H      49  UNL49       0.0000
   6621 H          19.8964   30.9278   42.2492 H      49  UNL49       0.0000
   6622 N          22.9509   34.4782   37.8525 N.3    49  UNL49       0.0000
   6623 C          22.8371   35.8593   40.2641 C.3    49  UNL49       0.0000
   6624 C          25.1410   32.9725   38.0404 C.3    49  UNL49       0.0000
   6625 O          21.6047   36.5486   38.0254 O.2    49  UNL49       0.0000
   6626 O          20.7960   34.5356   39.2919 O.2    49  UNL49       0.0000
   6627 O          22.9763   32.1911   36.7843 O.2    49  UNL49       0.0000
   6628 O          22.9339   32.2974   39.2929 O.2    49  UNL49       0.0000
   6629 F          23.8679   36.6827   39.9572 F      49  UNL49       0.0000
   6630 F          25.5983   33.7599   39.0410 F      49  UNL49       0.0000
   6631 F          23.3437   34.7953   40.9432 F      49  UNL49       0.0000
   6632 F          21.9766   36.5233   41.0902 F      49  UNL49       0.0000
   6633 F          25.6289   33.4329   36.8523 F      49  UNL49       0.0000
   6634 F          25.6284   31.7178   38.2275 F      49  UNL49       0.0000
   6635 S          21.9034   35.3125   38.7306 S.O2   49  UNL49       0.0000
   6636 S          23.2795   32.9160   38.0166 S.O2   49  UNL49       0.0000
   6637 TI          6.8401   16.2074   37.5017 Ti      1  UNL1        0.0000
   6638 TI         17.6706   19.0886   28.1369 Ti      1  UNL1        0.0000
   6639 TI         10.9368   12.2712   35.6817 Ti      1  UNL1        0.0000
   6640 TI         12.4480   21.4333   29.9087 Ti      1  UNL1        0.0000
   6641 TI         11.4494   23.1116   28.0043 Ti      1  UNL1        0.0000
   6642 TI         12.8250   12.0168   37.6351 Ti      1  UNL1        0.0000
   6643 TI          7.7893   14.4715   35.6102 Ti      1  UNL1        0.0000
   6644 TI         15.6827   19.3911   29.9844 Ti      1  UNL1        0.0000
   6645 H           7.3420   20.1045   37.2823 H       1  UNL1        0.0000
   6646 H          18.4793   15.1825   28.4576 H       1  UNL1        0.0000
   6647 H           2.8802   15.4508   37.1193 H       1  UNL1        0.0000
   6648 H          21.0527   21.0929   28.3376 H       1  UNL1        0.0000
   6649 H          13.8006    7.9823   37.2492 H       1  UNL1        0.0000
   6650 H           7.3909   22.5217   28.3264 H       1  UNL1        0.0000
   6651 H          11.9438   21.4748   26.1312 H       1  UNL1        0.0000
   6652 H          15.7950   18.8459   26.4370 H       1  UNL1        0.0000
   6653 H          13.3349   11.3497   32.1240 H       1  UNL1        0.0000
   6654 H          10.7245   23.2703   33.5277 H       1  UNL1        0.0000
   6655 H           3.7167   17.8601   35.2543 H       1  UNL1        0.0000
   6656 H          20.4253   17.0043   30.4429 H       1  UNL1        0.0000
   6657 H           6.0178   16.4127   31.9205 H       1  UNL1        0.0000
   6658 H           8.3493   24.9395   30.3576 H       1  UNL1        0.0000
   6659 H          11.8416   26.2145   28.8598 H       1  UNL1        0.0000
   6660 H          18.3215   13.1637   29.6601 H       1  UNL1        0.0000
   6661 H          14.5406   21.1134   28.5701 H       1  UNL1        0.0000
   6662 H           9.8561   14.1196   36.9754 H       1  UNL1        0.0000
   6663 H          17.0597   13.9517   36.0248 H       1  UNL1        0.0000
   6664 H          15.5786   13.4826   36.7721 H       1  UNL1        0.0000
   6665 H          17.6338   18.3853   34.9259 H       1  UNL1        0.0000
   6666 H          17.0641   18.7439   33.3073 H       1  UNL1        0.0000
   6667 H          16.5709    8.9969   35.8347 H       1  UNL1        0.0000
   6668 H          15.2918   10.0974   36.2921 H       1  UNL1        0.0000
   6669 C          18.2486   18.3474   31.0004 C.3     1  UNL1        0.0000
   6670 C           5.8795   16.4688   34.6547 C.3     1  UNL1        0.0000
   6671 C          13.5173   11.2605   34.7570 C.3     1  UNL1        0.0000
   6672 C          10.5118   23.4038   30.8681 C.3     1  UNL1        0.0000
   6673 C          19.1446   17.7430   31.9956 C.ar    1  UNL1        0.0000
   6674 C           4.9476   17.0938   33.6776 C.ar    1  UNL1        0.0000
   6675 C          14.4575   10.6461   33.8098 C.ar    1  UNL1        0.0000
   6676 C           9.6220   24.0506   31.8679 C.ar    1  UNL1        0.0000
   6677 C          18.8959   17.8180   33.4020 C.ar    1  UNL1        0.0000
   6678 C           5.1640   16.9738   32.2896 C.ar    1  UNL1        0.0000
   6679 C          15.5869    9.8858   34.2629 C.ar    1  UNL1        0.0000
   6680 C           8.5273   24.8236   31.4229 C.ar    1  UNL1        0.0000
   6681 C           9.8765   23.8799   33.2227 C.ar    1  UNL1        0.0000
   6682 C          14.2098   10.7783   32.4259 C.ar    1  UNL1        0.0000
   6683 C          20.2783   17.0441   31.5199 C.ar    1  UNL1        0.0000
   6684 C           3.8475   17.7862   34.1763 C.ar    1  UNL1        0.0000
   6685 C          18.4604   15.2616   26.3135 C.ar    1  UNL1        0.0000
   6686 C          11.9906   27.0532   26.3385 C.ar    1  UNL1        0.0000
   6687 C          20.9448   21.0247   26.1875 C.ar    1  UNL1        0.0000
   6688 C           7.5865   22.5672   26.1681 C.ar    1  UNL1        0.0000
   6689 C          13.1947   19.0901   31.8733 C.3     1  UNL1        0.0000
   6690 C           8.4386   11.9958   33.7914 C.3     1  UNL1        0.0000
   6691 C          18.3245   16.7165   26.2903 C.3     1  UNL1        0.0000
   6692 C          11.8979   25.6197   26.3010 C.3     1  UNL1        0.0000
   6693 C          19.6470   20.4079   26.2344 C.3     1  UNL1        0.0000
   6694 C           8.9888   22.9815   26.1926 C.3     1  UNL1        0.0000
   6695 C          18.4997   14.5925   27.5432 C.ar    1  UNL1        0.0000
   6696 C           7.3529   20.6929   38.1962 C.ar    1  UNL1        0.0000
   6697 C          21.6001   21.2995   27.4215 C.ar    1  UNL1        0.0000
   6698 C           2.3187   15.2714   38.0346 C.ar    1  UNL1        0.0000
   6699 C          17.0045   14.2270   38.0491 C.ar    1  UNL1        0.0000
   6700 C           6.8893   22.3367   27.3806 C.ar    1  UNL1        0.0000
   6701 C          13.8422    7.4551   38.1982 C.ar    1  UNL1        0.0000
   6702 C          12.0044   27.8044   27.5678 C.ar    1  UNL1        0.0000
   6703 N          12.0595   27.2056   28.8059 N.pl3   1  UNL1        0.0000
   6704 N          16.4254   14.0442   36.8101 N.pl3   1  UNL1        0.0000
   6705 N          17.8150   18.4642   33.9333 N.pl3   1  UNL1        0.0000
   6706 N          15.9179    9.7276   35.5803 N.pl3   1  UNL1        0.0000
   6707 O          17.0723   18.7524   31.3662 O.3     1  UNL1        0.0000
   6708 O           6.6485   15.5179   34.2564 O.3     1  UNL1        0.0000
   6709 O          13.8987   11.3850   35.9781 O.3     1  UNL1        0.0000
   6710 O          10.4460   23.8335   29.6685 O.3     1  UNL1        0.0000
   6711 O          11.2823   22.4466   31.2545 O.3     1  UNL1        0.0000
   6712 O          12.3469   11.6289   34.3515 O.3     1  UNL1        0.0000
   6713 O          18.6605   18.4281   29.7887 O.3     1  UNL1        0.0000
   6714 O           5.8375   16.9050   35.8544 O.3     1  UNL1        0.0000
   6715 O          15.9880   18.1732   28.7897 O.3     1  UNL1        0.0000
   6716 O           8.3417   16.0318   36.3548 O.3     1  UNL1        0.0000
   6717 O          16.9268   20.4605   29.2397 O.3     1  UNL1        0.0000
   6718 O           6.5896   14.3072   36.8474 O.3     1  UNL1        0.0000
   6719 O          11.1961   11.0992   36.9422 O.3     1  UNL1        0.0000
   6720 O          12.9645   22.9946   29.1702 O.3     1  UNL1        0.0000
   6721 O          12.1500   13.3607   36.4780 O.3     1  UNL1        0.0000
   6722 O          11.2583   21.2375   28.6528 O.3     1  UNL1        0.0000
   6723 O          13.5673   10.2450   38.2442 O.3     1  UNL1        0.0000
   6724 O          11.8148   24.9182   27.3962 O.3     1  UNL1        0.0000
   6725 O          14.3694   13.0332   38.2391 O.3     1  UNL1        0.0000
   6726 O           9.5788   23.0825   27.3361 O.3     1  UNL1        0.0000
   6727 O          19.1076   20.1077   27.3823 O.3     1  UNL1        0.0000
   6728 O           4.9533   16.1473   38.1702 O.3     1  UNL1        0.0000
   6729 O          18.3121   17.3534   27.4117 O.3     1  UNL1        0.0000
   6730 O           7.2215   17.9297   38.2514 O.3     1  UNL1        0.0000
   6731 O          14.1798   20.5647   29.2907 O.3     1  UNL1        0.0000
   6732 O           9.4778   13.5609   36.2718 O.3     1  UNL1        0.0000
   6733 O          16.6339   19.3396   26.3579 O.3     1  UNL1        0.0000
   6734 O          12.0662   22.4416   26.1912 O.3     1  UNL1        0.0000
   6735 H          13.3047   15.3653   34.6783 H       1  UNL1        0.0000
   6736 H           9.3831    9.5862   33.0308 H       1  UNL1        0.0000
   6737 H          14.0629   24.2801   31.9032 H       1  UNL1        0.0000
   6738 H          14.4129   17.1052   33.2476 H       1  UNL1        0.0000
   6739 H           9.4691   17.1476   33.8652 H       1  UNL1        0.0000
   6740 H           5.8851   12.0876   32.9291 H       1  UNL1        0.0000
   6741 H          10.8416   15.3807   34.9340 H       1  UNL1        0.0000
   6742 H          10.5832   18.9071   32.4691 H       1  UNL1        0.0000
   6743 H          15.1667   22.1041   31.4629 H       1  UNL1        0.0000
   6744 H           1.5732   22.3375   31.9052 H       1  UNL1        0.0000
   6745 C          12.5600   18.0990   32.7700 C.ar    1  UNL1        0.0000
   6746 C          11.3253   16.1457   34.3289 C.ar    1  UNL1        0.0000
   6747 C          15.7378   22.9176   31.9106 C.ar    1  UNL1        0.0000
   6748 C           7.7064   10.9411   33.0460 C.ar    1  UNL1        0.0000
   6749 C          11.1639   18.1246   32.9519 C.ar    1  UNL1        0.0000
   6750 C          12.7157   16.1311   34.1768 C.ar    1  UNL1        0.0000
   6751 C          15.1117   24.1441   32.1616 C.ar    1  UNL1        0.0000
   6752 C           8.3351    9.7135   32.7682 C.ar    1  UNL1        0.0000
   6753 C          17.0910   22.7313   32.2149 C.ar    1  UNL1        0.0000
   6754 C           6.3529   11.1301   32.7109 C.ar    1  UNL1        0.0000
   6755 C          13.3348   17.1031   33.3908 C.ar    1  UNL1        0.0000
   6756 C          10.5487   17.1419   33.7249 C.ar    1  UNL1        0.0000
   6757 O          14.4371   18.9536   31.5697 O.3     1  UNL1        0.0000
   6758 O           7.8157   13.0749   34.1029 O.3     1  UNL1        0.0000
   6759 O           9.6400   11.7552   34.1729 O.3     1  UNL1        0.0000
   6760 O          12.4698   20.0334   31.3920 O.3     1  UNL1        0.0000
   6761 N          15.5067   24.3791   51.3937 N.pl3  49  UNL49       0.0000
   6762 N          15.9698   23.6469   53.3976 N.pl3  49  UNL49       0.0000
   6763 C          16.1270   23.1489   51.2439 C.2    49  UNL49       0.0000
   6764 C          16.4175   22.6908   52.5016 C.2    49  UNL49       0.0000
   6765 C          17.2845   24.6980   55.2399 C.3    49  UNL49       0.0000
   6766 C          15.1320   25.2936   50.3081 C.3    49  UNL49       0.0000
   6767 C          15.4263   24.6616   52.7033 C.3    49  UNL49       0.0000
   6768 C          16.2234   23.6703   54.8547 C.3    49  UNL49       0.0000
   6769 H          16.3835   22.7433   50.2751 H      49  UNL49       0.0000
   6770 H          16.9181   21.7889   52.8281 H      49  UNL49       0.0000
   6771 H          18.2458   24.4742   54.7648 H      49  UNL49       0.0000
   6772 H          16.0111   25.4394   49.6714 H      49  UNL49       0.0000
   6773 H          16.9947   25.7105   54.9329 H      49  UNL49       0.0000
   6774 H          14.3118   24.8503   49.7383 H      49  UNL49       0.0000
   6775 H          17.4086   24.6855   56.3302 H      49  UNL49       0.0000
   6776 H          16.5428   22.6562   55.1275 H      49  UNL49       0.0000
   6777 H          14.8382   26.2473   50.7531 H      49  UNL49       0.0000
   6778 H          15.0545   25.5880   53.1169 H      49  UNL49       0.0000
   6779 H          15.2617   23.8614   55.3438 H      49  UNL49       0.0000
   6780 N          18.3162   27.4118   50.9471 N.3    49  UNL49       0.0000
   6781 C          18.2025   28.7929   53.3587 C.3    49  UNL49       0.0000
   6782 C          20.5064   25.9061   51.1350 C.3    49  UNL49       0.0000
   6783 O          16.9701   29.4822   51.1200 O.2    49  UNL49       0.0000
   6784 O          16.1613   27.4692   52.3865 O.2    49  UNL49       0.0000
   6785 O          18.3417   25.1247   49.8789 O.2    49  UNL49       0.0000
   6786 O          18.2993   25.2309   52.3875 O.2    49  UNL49       0.0000
   6787 F          19.2333   29.6163   53.0518 F      49  UNL49       0.0000
   6788 F          20.9637   26.6935   52.1357 F      49  UNL49       0.0000
   6789 F          18.7090   27.7289   54.0378 F      49  UNL49       0.0000
   6790 F          17.3420   29.4569   54.1848 F      49  UNL49       0.0000
   6791 F          20.9942   26.3664   49.9469 F      49  UNL49       0.0000
   6792 F          20.9937   24.6514   51.3221 F      49  UNL49       0.0000
   6793 S          17.2688   28.2461   51.8252 S.O2   49  UNL49       0.0000
   6794 S          18.6448   25.8496   51.1112 S.O2   49  UNL49       0.0000
   6795 TI          2.2054    9.1409   50.5963 Ti      1  UNL1        0.0000
   6796 TI         13.0359   12.0222   41.2315 Ti      1  UNL1        0.0000
   6797 TI          6.3021    5.2047   48.7763 Ti      1  UNL1        0.0000
   6798 TI          7.8133   14.3669   43.0033 Ti      1  UNL1        0.0000
   6799 TI          6.8147   16.0452   41.0989 Ti      1  UNL1        0.0000
   6800 TI          8.1903    4.9504   50.7297 Ti      1  UNL1        0.0000
   6801 TI          3.1546    7.4051   48.7048 Ti      1  UNL1        0.0000
   6802 TI         11.0481   12.3247   43.0790 Ti      1  UNL1        0.0000
   6803 H           2.7073   13.0380   50.3769 H      49  UNL49       0.0000
   6804 H          13.8447    8.1161   41.5522 H       1  UNL1        0.0000
   6805 H          -1.7545    8.3843   50.2139 H      49  UNL49       0.0000
   6806 H          16.4181   14.0265   41.4322 H       1  UNL1        0.0000
   6807 H           9.1659    0.9159   50.3438 H      49  UNL49       0.0000
   6808 H           2.7562   15.4553   41.4210 H       1  UNL1        0.0000
   6809 H           7.3092   14.4084   39.2258 H       1  UNL1        0.0000
   6810 H          11.1604   11.7795   39.5316 H       1  UNL1        0.0000
   6811 H           8.7002    4.2833   45.2186 H       1  UNL1        0.0000
   6812 H           6.0899   16.2039   46.6223 H       1  UNL1        0.0000
   6813 H          -0.9180   10.7937   48.3489 H       1  UNL1        0.0000
   6814 H          15.7907    9.9378   43.5375 H       1  UNL1        0.0000
   6815 H           1.3831    9.3462   45.0151 H       1  UNL1        0.0000
   6816 H           3.7147   17.8730   43.4522 H       1  UNL1        0.0000
   6817 H           7.2070   19.1480   41.9544 H       1  UNL1        0.0000
   6818 H          13.6869    6.0973   42.7547 H       1  UNL1        0.0000
   6819 H           9.9059   14.0470   41.6647 H       1  UNL1        0.0000
   6820 H           5.2214    7.0531   50.0700 H       1  UNL1        0.0000
   6821 H          12.4251    6.8853   49.1194 H      49  UNL49       0.0000
   6822 H          10.9439    6.4162   49.8667 H      49  UNL49       0.0000
   6823 H          12.9992   11.3189   48.0205 H       1  UNL1        0.0000
   6824 H          12.4295   11.6775   46.4019 H       1  UNL1        0.0000
   6825 H          11.9363    1.9304   48.9293 H       1  UNL1        0.0000
   6826 H          10.6571    3.0310   49.3867 H       1  UNL1        0.0000
   6827 C          13.6140   11.2809   44.0950 C.3     1  UNL1        0.0000
   6828 C           1.2449    9.4023   47.7493 C.3     1  UNL1        0.0000
   6829 C           8.8826    4.1940   47.8516 C.3     1  UNL1        0.0000
   6830 C           5.8772   16.3374   43.9627 C.3     1  UNL1        0.0000
   6831 C          14.5100   10.6766   45.0902 C.ar    1  UNL1        0.0000
   6832 C           0.3130   10.0273   46.7722 C.ar    1  UNL1        0.0000
   6833 C           9.8228    3.5797   46.9044 C.ar    1  UNL1        0.0000
   6834 C           4.9874   16.9842   44.9625 C.ar    1  UNL1        0.0000
   6835 C          14.2612   10.7515   46.4967 C.ar    1  UNL1        0.0000
   6836 C           0.5294    9.9074   45.3842 C.ar    1  UNL1        0.0000
   6837 C          10.9523    2.8194   47.3575 C.ar    1  UNL1        0.0000
   6838 C           3.8927   17.7571   44.5175 C.ar    1  UNL1        0.0000
   6839 C           5.2419   16.8134   46.3173 C.ar    1  UNL1        0.0000
   6840 C           9.5751    3.7118   45.5205 C.ar    1  UNL1        0.0000
   6841 C          15.6436    9.9776   44.6145 C.ar    1  UNL1        0.0000
   6842 C          -0.7872   10.7198   47.2709 C.ar    1  UNL1        0.0000
   6843 C          13.8257    8.1952   39.4081 C.ar    1  UNL1        0.0000
   6844 C           7.3560   19.9868   39.4331 C.ar    1  UNL1        0.0000
   6845 C          16.3102   13.9583   39.2821 C.ar    1  UNL1        0.0000
   6846 C           2.9518   15.5007   39.2627 C.ar    1  UNL1        0.0000
   6847 C           8.5600   12.0237   44.9679 C.3     1  UNL1        0.0000
   6848 C           3.8039    4.9293   46.8860 C.3     1  UNL1        0.0000
   6849 C          13.6899    9.6500   39.3849 C.3     1  UNL1        0.0000
   6850 C           7.2632   18.5532   39.3956 C.3     1  UNL1        0.0000
   6851 C          15.0123   13.3415   39.3290 C.3     1  UNL1        0.0000
   6852 C           4.3541   15.9151   39.2872 C.3     1  UNL1        0.0000
   6853 C          13.8651    7.5261   40.6378 C.ar    1  UNL1        0.0000
   6854 C           2.7182   13.6264   51.2908 C.2    49  UNL49       0.0000
   6855 C          16.9655   14.2331   40.5161 C.ar    1  UNL1        0.0000
   6856 C          -2.3159    8.2049   51.1292 C.2    49  UNL49       0.0000
   6857 C          12.3698    7.1606   51.1437 C.2    49  UNL49       0.0000
   6858 C           2.2546   15.2703   40.4752 C.ar    1  UNL1        0.0000
   6859 C           9.2076    0.3887   51.2928 C.2    49  UNL49       0.0000
   6860 C           7.3698   20.7380   40.6624 C.ar    1  UNL1        0.0000
   6861 N           7.4248   20.1391   41.9006 N.pl3   1  UNL1        0.0000
   6862 N          11.7908    6.9777   49.9048 N.pl3  49  UNL49       0.0000
   6863 N          13.1803   11.3978   47.0279 N.pl3   1  UNL1        0.0000
   6864 N          11.2833    2.6611   48.6749 N.pl3   1  UNL1        0.0000
   6865 O          12.4376   11.6860   44.4608 O.3     1  UNL1        0.0000
   6866 O           2.0139    8.4515   47.3510 O.3     1  UNL1        0.0000
   6867 O           9.2641    4.3185   49.0727 O.3     1  UNL1        0.0000
   6868 O           5.8113   16.7671   42.7631 O.3     1  UNL1        0.0000
   6869 O           6.6477   15.3802   44.3491 O.3     1  UNL1        0.0000
   6870 O           7.7122    4.5625   47.4461 O.3     1  UNL1        0.0000
   6871 O          14.0258   11.3617   42.8833 O.3     1  UNL1        0.0000
   6872 O           1.2029    9.8386   48.9490 O.3     1  UNL1        0.0000
   6873 O          11.3533   11.1068   41.8843 O.3     1  UNL1        0.0000
   6874 O           3.7071    8.9654   49.4494 O.3     1  UNL1        0.0000
   6875 O          12.2921   13.3941   42.3343 O.3     1  UNL1        0.0000
   6876 O           1.9549    7.2407   49.9420 O.3     1  UNL1        0.0000
   6877 O           6.5614    4.0328   50.0368 O.3     1  UNL1        0.0000
   6878 O           8.3299   15.9282   42.2648 O.3     1  UNL1        0.0000
   6879 O           7.5154    6.2943   49.5726 O.3     1  UNL1        0.0000
   6880 O           6.6236   14.1711   41.7474 O.3     1  UNL1        0.0000
   6881 O           8.9327    3.1785   51.3388 O.3     1  UNL1        0.0000
   6882 O           7.1801   17.8518   40.4908 O.3     1  UNL1        0.0000
   6883 O           9.7348    5.9667   51.3337 O.3     1  UNL1        0.0000
   6884 O           4.9442   16.0161   40.4307 O.3     1  UNL1        0.0000
   6885 O          14.4730   13.0413   40.4770 O.3     1  UNL1        0.0000
   6886 O           0.3187    9.0809   51.2648 O.3     1  UNL1        0.0000
   6887 O          13.6774   10.2870   40.5064 O.3     1  UNL1        0.0000
   6888 O           2.5869   10.8632   51.3460 O.3     1  UNL1        0.0000
   6889 O           9.5451   13.4983   42.3854 O.3     1  UNL1        0.0000
   6890 O           4.8432    6.4944   49.3664 O.3     1  UNL1        0.0000
   6891 O          11.9992   12.2731   39.4526 O.3     1  UNL1        0.0000
   6892 O           7.4316   15.3752   39.2858 O.3     1  UNL1        0.0000
   6893 H           8.6701    8.2989   47.7729 H       1  UNL1        0.0000
   6894 H           4.7484    2.5197   46.1254 H       1  UNL1        0.0000
   6895 H           9.4283   17.2137   44.9978 H       1  UNL1        0.0000
   6896 H           9.7783   10.0388   46.3422 H       1  UNL1        0.0000
   6897 H           4.8345   10.0811   46.9598 H       1  UNL1        0.0000
   6898 H           1.2505    5.0212   46.0237 H       1  UNL1        0.0000
   6899 H           6.2069    8.3142   48.0286 H       1  UNL1        0.0000
   6900 H           5.9486   11.8407   45.5637 H       1  UNL1        0.0000
   6901 H          10.5320   15.0377   44.5575 H       1  UNL1        0.0000
   6902 H          -3.0614   15.2710   44.9998 H       1  UNL1        0.0000
   6903 C           7.9253   11.0326   45.8647 C.ar    1  UNL1        0.0000
   6904 C           6.6906    9.0793   47.4235 C.ar    1  UNL1        0.0000
   6905 C          11.1032   15.8512   45.0053 C.ar    1  UNL1        0.0000
   6906 C           3.0717    3.8747   46.1406 C.ar    1  UNL1        0.0000
   6907 C           6.5293   11.0581   46.0465 C.ar    1  UNL1        0.0000
   6908 C           8.0811    9.0646   47.2714 C.ar    1  UNL1        0.0000
   6909 C          10.4771   17.0777   45.2562 C.ar    1  UNL1        0.0000
   6910 C           3.7005    2.6470   45.8628 C.ar    1  UNL1        0.0000
   6911 C          12.4563   15.6649   45.3095 C.ar    1  UNL1        0.0000
   6912 C           1.7183    4.0636   45.8055 C.ar    1  UNL1        0.0000
   6913 C           8.7002   10.0367   46.4854 C.ar    1  UNL1        0.0000
   6914 C           5.9141   10.0755   46.8195 C.ar    1  UNL1        0.0000
   6915 O           9.8024   11.8872   44.6643 O.3     1  UNL1        0.0000
   6916 O           3.1810    6.0085   47.1975 O.3     1  UNL1        0.0000
   6917 O           5.0054    4.6888   47.2675 O.3     1  UNL1        0.0000
   6918 O           7.8352   12.9670   44.4866 O.3     1  UNL1        0.0000
   6919 N          10.8721   17.3126   64.4883 N.pl3  49  UNL49       0.0000
   6920 N          11.3352   16.5804   66.4922 N.pl3  49  UNL49       0.0000
   6921 C          11.4923   16.0825   64.3386 C.2    49  UNL49       0.0000
   6922 C          11.7829   15.6244   65.5962 C.2    49  UNL49       0.0000
   6923 C          12.6498   17.6316   68.3345 C.3    49  UNL49       0.0000
   6924 C          10.4973   18.2272   63.4028 C.3    49  UNL49       0.0000
   6925 C          10.7917   17.5952   65.7980 C.3    49  UNL49       0.0000
   6926 C          11.5888   16.6038   67.9493 C.3    49  UNL49       0.0000
   6927 H          11.7489   15.6768   63.3697 H      49  UNL49       0.0000
   6928 H          12.2834   14.7225   65.9227 H      49  UNL49       0.0000
   6929 H          13.6112   17.4077   67.8594 H      49  UNL49       0.0000
   6930 H          11.3765   18.3730   62.7660 H      49  UNL49       0.0000
   6931 H          12.3600   18.6441   68.0275 H      49  UNL49       0.0000
   6932 H           9.6771   17.7839   62.8329 H      49  UNL49       0.0000
   6933 H          12.7739   17.6190   69.4248 H      49  UNL49       0.0000
   6934 H          11.9081   15.5897   68.2221 H      49  UNL49       0.0000
   6935 H          10.2035   19.1809   63.8477 H      49  UNL49       0.0000
   6936 H          10.4198   18.5216   66.2115 H      49  UNL49       0.0000
   6937 H          10.6271   16.7950   68.4384 H      49  UNL49       0.0000
   6938 N          13.6816   20.3454   64.0417 N.3    49  UNL49       0.0000
   6939 C          13.5678   21.7264   66.4533 C.3    49  UNL49       0.0000
   6940 C          15.8717   18.8396   64.2296 C.3    49  UNL49       0.0000
   6941 O          12.3354   22.4157   64.2146 O.2    49  UNL49       0.0000
   6942 O          11.5267   20.4027   65.4811 O.2    49  UNL49       0.0000
   6943 O          13.7070   18.0583   62.9735 O.2    49  UNL49       0.0000
   6944 O          13.6646   18.1645   65.4821 O.2    49  UNL49       0.0000
   6945 F          14.5986   22.5498   66.1464 F      49  UNL49       0.0000
   6946 F          16.3290   19.6270   65.2303 F      49  UNL49       0.0000
   6947 F          14.0744   20.6624   67.1324 F      49  UNL49       0.0000
   6948 F          12.7073   22.3904   67.2794 F      49  UNL49       0.0000
   6949 F          16.3596   19.3000   63.0415 F      49  UNL49       0.0000
   6950 F          16.3591   17.5849   64.4167 F      49  UNL49       0.0000
   6951 S          12.6341   21.1796   64.9198 S.O2   49  UNL49       0.0000
   6952 S          14.0102   18.7832   64.2058 S.O2   49  UNL49       0.0000
   6953 TI          9.5923   44.9528   11.2560 Ti      1  UNL1        0.0000
   6954 TI         20.4228   47.8340    1.8912 Ti      1  UNL1        0.0000
   6955 TI         13.6890   41.0166    9.4360 Ti      1  UNL1        0.0000
   6956 TI         15.2002   50.1787    3.6630 Ti      1  UNL1        0.0000
   6957 TI         14.2017   51.8570    1.7586 Ti      1  UNL1        0.0000
   6958 TI         15.5772   40.7622   11.3894 Ti      1  UNL1        0.0000
   6959 TI         10.5415   43.2169    9.3645 Ti      1  UNL1        0.0000
   6960 TI         18.4350   48.1365    3.7386 Ti      1  UNL1        0.0000
   6961 H          10.0942   48.8498   11.0365 H       1  UNL1        0.0000
   6962 H          21.2316   43.9279    2.2119 H       1  UNL1        0.0000
   6963 H           5.6324   44.1961   10.8735 H       1  UNL1        0.0000
   6964 H          23.8050   49.8383    2.0918 H       1  UNL1        0.0000
   6965 H          16.5528   36.7277   11.0034 H       1  UNL1        0.0000
   6966 H          10.1431   51.2671    2.0806 H       1  UNL1        0.0000
   6967 H          14.6961   50.2202   -0.1145 H       1  UNL1        0.0000
   6968 H          18.5473   47.5913    0.1912 H       1  UNL1        0.0000
   6969 H          16.0871   40.0951    5.8783 H       1  UNL1        0.0000
   6970 H          13.4768   52.0157    7.2819 H       1  UNL1        0.0000
   6971 H           6.4689   46.6055    9.0086 H       1  UNL1        0.0000
   6972 H          23.1776   45.7496    4.1972 H       1  UNL1        0.0000
   6973 H           8.7700   45.1581    5.6748 H       1  UNL1        0.0000
   6974 H          11.1016   53.6849    4.1118 H       1  UNL1        0.0000
   6975 H          14.5939   54.9598    2.6140 H       1  UNL1        0.0000
   6976 H          21.0738   41.9091    3.4143 H       1  UNL1        0.0000
   6977 H          17.2929   49.8588    2.3243 H       1  UNL1        0.0000
   6978 H          12.6083   42.8650   10.7296 H       1  UNL1        0.0000
   6979 H          19.8120   42.6971    9.7790 H       1  UNL1        0.0000
   6980 H          18.3309   42.2280   10.5264 H       1  UNL1        0.0000
   6981 H          20.3861   47.1307    8.6801 H       1  UNL1        0.0000
   6982 H          19.8164   47.4893    7.0616 H       1  UNL1        0.0000
   6983 H          19.3232   37.7422    9.5890 H       1  UNL1        0.0000
   6984 H          18.0440   38.8428   10.0464 H       1  UNL1        0.0000
   6985 C          21.0009   47.0927    4.7547 C.3     1  UNL1        0.0000
   6986 C           8.6318   45.2141    8.4089 C.3     1  UNL1        0.0000
   6987 C          16.2695   40.0059    8.5113 C.3     1  UNL1        0.0000
   6988 C          13.2641   52.1492    4.6223 C.3     1  UNL1        0.0000
   6989 C          21.8969   46.4884    5.7499 C.ar    1  UNL1        0.0000
   6990 C           7.6999   45.8392    7.4319 C.ar    1  UNL1        0.0000
   6991 C          17.2097   39.3915    7.5641 C.ar    1  UNL1        0.0000
   6992 C          12.3743   52.7960    5.6221 C.2     1  UNL1        0.0000
   6993 C          21.6481   46.5633    7.1563 C.ar    1  UNL1        0.0000
   6994 C           7.9163   45.7192    6.0439 C.ar    1  UNL1        0.0000
   6995 C          18.3392   38.6312    8.0172 C.ar    1  UNL1        0.0000
   6996 C          11.2796   53.5690    5.1772 C.3     1  UNL1        0.0000
   6997 C          12.6288   52.6252    6.9770 C.2     1  UNL1        0.0000
   6998 C          16.9620   39.5236    6.1802 C.ar    1  UNL1        0.0000
   6999 C          23.0306   45.7894    5.2742 C.ar    1  UNL1        0.0000
   7000 C           6.5997   46.5316    7.9306 C.ar    1  UNL1        0.0000
   7001 C          21.2126   44.0070    0.0678 C.2     1  UNL1        0.0000
   7002 C          14.7429   55.7986    0.0928 C.2     1  UNL1        0.0000
   7003 C          23.6971   49.7701   -0.0582 C.2     1  UNL1        0.0000
   7004 C          10.3387   51.3125   -0.0776 C.2     1  UNL1        0.0000
   7005 C          15.9469   47.8355    5.6276 C.3     1  UNL1        0.0000
   7006 C          11.1909   40.7411    7.5457 C.3     1  UNL1        0.0000
   7007 C          21.0768   45.4618    0.0446 C.2     1  UNL1        0.0000
   7008 C          14.6501   54.3651    0.0553 C.2     1  UNL1        0.0000
   7009 C          22.3992   49.1533   -0.0114 C.2     1  UNL1        0.0000
   7010 C          11.7410   51.7269   -0.0532 C.2     1  UNL1        0.0000
   7011 C          21.2520   43.3379    1.2974 C.2     1  UNL1        0.0000
   7012 C          10.1052   49.4382   11.9504 C.3     1  UNL1        0.0000
   7013 C          24.3524   50.0449    1.1757 C.2     1  UNL1        0.0000
   7014 C           5.0710   44.0168   11.7889 C.ar    1  UNL1        0.0000
   7015 C          19.7567   42.9724   11.8034 C.ar    1  UNL1        0.0000
   7016 C           9.6415   51.0821    1.1348 C.2     1  UNL1        0.0000
   7017 C          16.5945   36.2005   11.9525 C.ar    1  UNL1        0.0000
   7018 C          14.7567   56.5498    1.3220 C.3     1  UNL1        0.0000
   7019 N          14.8117   55.9509    2.5602 N.3     1  UNL1        0.0000
   7020 N          19.1777   42.7896   10.5644 N.pl3   1  UNL1        0.0000
   7021 N          20.5672   47.2096    7.6876 N.pl3   1  UNL1        0.0000
   7022 N          18.6702   38.4730    9.3345 N.pl3   1  UNL1        0.0000
   7023 O          19.8245   47.4978    5.1205 O.3     1  UNL1        0.0000
   7024 O           9.4008   44.2633    8.0107 O.3     1  UNL1        0.0000
   7025 O          16.6510   40.1303    9.7324 O.3     1  UNL1        0.0000
   7026 O          13.1982   52.5789    3.4227 O.3     1  UNL1        0.0000
   7027 O          14.0346   51.1920    5.0088 O.3     1  UNL1        0.0000
   7028 O          15.0991   40.3743    8.1058 O.3     1  UNL1        0.0000
   7029 O          21.4127   47.1735    3.5430 O.3     1  UNL1        0.0000
   7030 O           8.5898   45.6504    9.6087 O.3     1  UNL1        0.0000
   7031 O          18.7402   46.9186    2.5439 O.3     1  UNL1        0.0000
   7032 O          11.0940   44.7772   10.1090 O.3     1  UNL1        0.0000
   7033 O          19.6790   49.2059    2.9939 O.3     1  UNL1        0.0000
   7034 O           9.3418   43.0525   10.6017 O.3     1  UNL1        0.0000
   7035 O          13.9483   39.8446   10.6964 O.3     1  UNL1        0.0000
   7036 O          15.7168   51.7400    2.9245 O.3     1  UNL1        0.0000
   7037 O          14.9023   42.1061   10.2322 O.3     1  UNL1        0.0000
   7038 O          14.0105   49.9829    2.4071 O.3     1  UNL1        0.0000
   7039 O          16.3196   38.9904   11.9985 O.3     1  UNL1        0.0000
   7040 O          14.5670   53.6636    1.1505 O.2     1  UNL1        0.0000
   7041 O          17.1217   41.7785   11.9933 O.3     1  UNL1        0.0000
   7042 O          12.3311   51.8279    1.0904 O.2     1  UNL1        0.0000
   7043 O          21.8599   48.8531    1.1366 O.2     1  UNL1        0.0000
   7044 O           7.7056   44.8927   11.9244 O.3     1  UNL1        0.0000
   7045 O          21.0643   46.0988    1.1660 O.2     1  UNL1        0.0000
   7046 O           9.9738   46.6751   12.0057 O.2     1  UNL1        0.0000
   7047 O          16.9320   49.3101    3.0450 O.3     1  UNL1        0.0000
   7048 O          12.2301   42.3063   10.0260 O.3     1  UNL1        0.0000
   7049 O          19.3861   48.0850    0.1122 O.3     1  UNL1        0.0000
   7050 O          14.8185   51.1870   -0.0545 O.3     1  UNL1        0.0000
   7051 H          16.0570   44.1107    8.4326 H       1  UNL1        0.0000
   7052 H          12.1353   38.3316    6.7850 H       1  UNL1        0.0000
   7053 H          16.8152   53.0255    5.6574 H      49  UNL49       0.0000
   7054 H          17.1652   45.8506    7.0019 H       1  UNL1        0.0000
   7055 H          12.2214   45.8930    7.6195 H       1  UNL1        0.0000
   7056 H           8.6374   40.8330    6.6834 H       1  UNL1        0.0000
   7057 H          13.5938   44.1260    8.6883 H       1  UNL1        0.0000
   7058 H          13.3355   47.6525    6.2234 H       1  UNL1        0.0000
   7059 H          17.9189   50.8495    5.2171 H      49  UNL49       0.0000
   7060 H           4.3255   51.0828    5.6595 H      49  UNL49       0.0000
   7061 C          15.3122   46.8444    6.5243 C.ar    1  UNL1        0.0000
   7062 C          14.0775   44.8911    8.0832 C.ar    1  UNL1        0.0000
   7063 C          18.4901   51.6630    5.6649 C.2    49  UNL49       0.0000
   7064 C          10.4586   39.6865    6.8002 C.ar    1  UNL1        0.0000
   7065 C          13.9162   46.8699    6.7061 C.ar    1  UNL1        0.0000
   7066 C          15.4680   44.8764    7.9311 C.ar    1  UNL1        0.0000
   7067 C          17.8640   52.8895    5.9159 C.3    49  UNL49       0.0000
   7068 C          11.0874   38.4588    6.5224 C.ar    1  UNL1        0.0000
   7069 C          19.8432   51.4767    5.9692 C.2    49  UNL49       0.0000
   7070 C           9.1052   39.8754    6.4652 C.ar    1  UNL1        0.0000
   7071 C          16.0871   45.8485    7.1451 C.ar    1  UNL1        0.0000
   7072 C          13.3010   45.8873    7.4792 C.ar    1  UNL1        0.0000
   7073 O          17.1893   47.6990    5.3240 O.3     1  UNL1        0.0000
   7074 O          10.5679   41.8203    7.8571 O.3     1  UNL1        0.0000
   7075 O          12.3923   40.5006    7.9272 O.3     1  UNL1        0.0000
   7076 O          15.2221   48.7788    5.1463 O.3     1  UNL1        0.0000
   7077 N          18.2590   53.1244   25.1480 N.pl3  49  UNL49       0.0000
   7078 N          18.7221   52.3923   27.1519 N.pl3  49  UNL49       0.0000
   7079 C          18.8792   51.8943   24.9982 C.2    49  UNL49       0.0000
   7080 C          19.1698   51.4362   26.2558 C.2    49  UNL49       0.0000
   7081 C          20.0368   53.4434   28.9942 C.3    49  UNL49       0.0000
   7082 C          17.8843   54.0390   24.0624 C.3    49  UNL49       0.0000
   7083 C          18.1786   53.4070   26.4576 C.3    49  UNL49       0.0000
   7084 C          18.9757   52.4157   28.6090 C.3    49  UNL49       0.0000
   7085 H          19.1358   51.4887   24.0294 H      49  UNL49       0.0000
   7086 H          19.6703   50.5343   26.5824 H      49  UNL49       0.0000
   7087 H          20.9981   53.2195   28.5191 H      49  UNL49       0.0000
   7088 H          18.7634   54.1848   23.4256 H      49  UNL49       0.0000
   7089 H          19.7469   54.4559   28.6872 H      49  UNL49       0.0000
   7090 H          17.0640   53.5957   23.4926 H      49  UNL49       0.0000
   7091 H          20.1608   53.4308   30.0844 H      49  UNL49       0.0000
   7092 H          19.2950   51.4015   28.8817 H      49  UNL49       0.0000
   7093 H          17.5904   54.9927   24.5074 H      49  UNL49       0.0000
   7094 H          17.8067   54.3334   26.8712 H      49  UNL49       0.0000
   7095 H          18.0140   52.6068   29.0981 H      49  UNL49       0.0000
   7096 N          21.0685   56.1572   24.7014 N.3    49  UNL49       0.0000
   7097 C          20.9547   57.5383   27.1130 C.3    49  UNL49       0.0000
   7098 C          23.2586   54.6515   24.8893 C.3    49  UNL49       0.0000
   7099 O          19.7224   58.2275   24.8743 O.2    49  UNL49       0.0000
   7100 O          18.9136   56.2145   26.1407 O.2    49  UNL49       0.0000
   7101 O          21.0939   53.8701   23.6331 O.2    49  UNL49       0.0000
   7102 O          21.0515   53.9763   26.1417 O.2    49  UNL49       0.0000
   7103 F          21.9855   58.3617   26.8061 F      49  UNL49       0.0000
   7104 F          23.7160   55.4389   25.8899 F      49  UNL49       0.0000
   7105 F          21.4613   56.4742   27.7920 F      49  UNL49       0.0000
   7106 F          20.0942   58.2023   27.9390 F      49  UNL49       0.0000
   7107 F          23.7465   55.1118   23.7012 F      49  UNL49       0.0000
   7108 F          23.7460   53.3968   25.0763 F      49  UNL49       0.0000
   7109 S          20.0210   56.9915   25.5795 S.O2   49  UNL49       0.0000
   7110 S          21.3971   54.5950   24.8655 S.O2   49  UNL49       0.0000
   7111 TI          4.9577   37.8863   24.3506 Ti      1  UNL1        0.0000
   7112 TI         15.7882   40.7675   14.9858 Ti      1  UNL1        0.0000
   7113 TI          9.0544   33.9501   22.5306 Ti      1  UNL1        0.0000
   7114 TI         10.5656   43.1123   16.7576 Ti      1  UNL1        0.0000
   7115 TI          9.5670   44.7906   14.8532 Ti      1  UNL1        0.0000
   7116 TI         10.9426   33.6958   24.4840 Ti      1  UNL1        0.0000
   7117 TI          5.9069   36.1504   22.4591 Ti      1  UNL1        0.0000
   7118 TI         13.8004   41.0701   16.8332 Ti      1  UNL1        0.0000
   7119 H           5.4596   41.7834   24.1311 H       1  UNL1        0.0000
   7120 H          16.5970   36.8615   15.3065 H       1  UNL1        0.0000
   7121 H           0.9978   37.1297   23.9681 H       1  UNL1        0.0000
   7122 H          19.1703   42.7718   15.1864 H       1  UNL1        0.0000
   7123 H          11.9182   29.6612   24.0981 H       1  UNL1        0.0000
   7124 H           5.5085   44.2007   15.1752 H       1  UNL1        0.0000
   7125 H          10.0615   43.1538   12.9801 H       1  UNL1        0.0000
   7126 H          13.9127   40.5248   13.2858 H       1  UNL1        0.0000
   7127 H          11.4525   33.0287   18.9729 H       1  UNL1        0.0000
   7128 H           8.8421   44.9493   20.3765 H       1  UNL1        0.0000
   7129 H           1.8343   39.5391   22.1032 H       1  UNL1        0.0000
   7130 H          18.5429   38.6832   17.2918 H       1  UNL1        0.0000
   7131 H           4.1354   38.0916   18.7694 H       1  UNL1        0.0000
   7132 H           6.4669   46.6184   17.2064 H       1  UNL1        0.0000
   7133 H           9.9593   47.8934   15.7087 H       1  UNL1        0.0000
   7134 H          16.4391   34.8426   16.5090 H       1  UNL1        0.0000
   7135 H          12.6582   42.7924   15.4189 H       1  UNL1        0.0000
   7136 H           7.9737   35.7985   23.8242 H       1  UNL1        0.0000
   7137 H          15.1773   35.6306   22.8736 H       1  UNL1        0.0000
   7138 H          13.6962   35.1616   23.6210 H       1  UNL1        0.0000
   7139 H          15.7515   40.0643   21.7747 H       1  UNL1        0.0000
   7140 H          15.1817   40.4229   20.1562 H       1  UNL1        0.0000
   7141 H          14.6885   30.6758   22.6836 H       1  UNL1        0.0000
   7142 H          13.4094   31.7764   23.1410 H       1  UNL1        0.0000
   7143 C          16.3662   40.0263   17.8493 C.3     1  UNL1        0.0000
   7144 C           3.9972   38.1477   21.5036 C.3     1  UNL1        0.0000
   7145 C          11.6349   32.9394   21.6059 C.3     1  UNL1        0.0000
   7146 C           8.6295   45.0828   17.7169 C.3     1  UNL1        0.0000
   7147 C          17.2622   39.4220   18.8445 C.ar    1  UNL1        0.0000
   7148 C           3.0653   38.7727   20.5265 C.ar    1  UNL1        0.0000
   7149 C          12.5751   32.3251   20.6587 C.ar    1  UNL1        0.0000
   7150 C           7.7396   45.7296   18.7167 C.2     1  UNL1        0.0000
   7151 C          17.0135   39.4969   20.2509 C.ar    1  UNL1        0.0000
   7152 C           3.2816   38.6527   19.1385 C.ar    1  UNL1        0.0000
   7153 C          13.7045   31.5648   21.1118 C.ar    1  UNL1        0.0000
   7154 C           6.6449   46.5025   18.2718 C.3     1  UNL1        0.0000
   7155 C           7.9941   45.5588   20.0716 C.2     1  UNL1        0.0000
   7156 C          12.3274   32.4572   19.2748 C.ar    1  UNL1        0.0000
   7157 C          18.3959   38.7230   18.3688 C.ar    1  UNL1        0.0000
   7158 C           1.9651   39.4651   21.0252 C.ar    1  UNL1        0.0000
   7159 C          16.5780   36.9406   13.1624 C.ar    1  UNL1        0.0000
   7160 C          10.1083   48.7321   13.1874 C.2     1  UNL1        0.0000
   7161 C          19.0624   42.7037   13.0364 C.ar    1  UNL1        0.0000
   7162 C           5.7041   44.2461   13.0170 C.ar    1  UNL1        0.0000
   7163 C          11.3123   40.7691   18.7222 C.3     1  UNL1        0.0000
   7164 C           6.5562   33.6747   20.6403 C.3     1  UNL1        0.0000
   7165 C          16.4421   38.3954   13.1392 C.3     1  UNL1        0.0000
   7166 C          10.0155   47.2986   13.1499 C.2     1  UNL1        0.0000
   7167 C          17.7646   42.0868   13.0832 C.3     1  UNL1        0.0000
   7168 C           7.1064   44.6604   13.0414 C.3     1  UNL1        0.0000
   7169 C          16.6173   36.2714   14.3920 C.ar    1  UNL1        0.0000
   7170 C           5.4705   42.3718   25.0450 C.3     1  UNL1        0.0000
   7171 C          19.7177   42.9785   14.2703 C.ar    1  UNL1        0.0000
   7172 C           0.4363   36.9503   24.8835 C.ar    1  UNL1        0.0000
   7173 C          15.1221   35.9060   24.8980 C.ar    1  UNL1        0.0000
   7174 C           5.0069   44.0157   14.2294 C.ar    1  UNL1        0.0000
   7175 C          11.9598   29.1341   25.0471 C.ar    1  UNL1        0.0000
   7176 C          10.1220   49.4833   14.4167 C.3     1  UNL1        0.0000
   7177 N          10.1771   48.8845   15.6548 N.3     1  UNL1        0.0000
   7178 N          14.5430   35.7231   23.6590 N.pl3   1  UNL1        0.0000
   7179 N          15.9326   40.1431   20.7822 N.pl3   1  UNL1        0.0000
   7180 N          14.0356   31.4065   22.4292 N.pl3   1  UNL1        0.0000
   7181 O          15.1899   40.4314   18.2151 O.3     1  UNL1        0.0000
   7182 O           4.7661   37.1968   21.1053 O.3     1  UNL1        0.0000
   7183 O          12.0163   33.0639   22.8270 O.3     1  UNL1        0.0000
   7184 O           8.5636   45.5124   16.5173 O.3     1  UNL1        0.0000
   7185 O           9.3999   44.1256   18.1034 O.3     1  UNL1        0.0000
   7186 O          10.4645   33.3079   21.2004 O.3     1  UNL1        0.0000
   7187 O          16.7781   40.1071   16.6376 O.3     1  UNL1        0.0000
   7188 O           3.9551   38.5840   22.7033 O.3     1  UNL1        0.0000
   7189 O          14.1056   39.8522   15.6385 O.3     1  UNL1        0.0000
   7190 O           6.4594   37.7108   23.2036 O.3     1  UNL1        0.0000
   7191 O          15.0444   42.1395   16.0885 O.3     1  UNL1        0.0000
   7192 O           4.7072   35.9861   23.6963 O.3     1  UNL1        0.0000
   7193 O           9.3137   32.7782   23.7910 O.3     1  UNL1        0.0000
   7194 O          11.0821   44.6736   16.0191 O.3     1  UNL1        0.0000
   7195 O          10.2676   35.0397   23.3268 O.3     1  UNL1        0.0000
   7196 O           9.3759   42.9165   15.5017 O.3     1  UNL1        0.0000
   7197 O          11.6849   31.9239   25.0931 O.3     1  UNL1        0.0000
   7198 O           9.9324   46.5972   14.2451 O.2     1  UNL1        0.0000
   7199 O          12.4871   34.7121   25.0880 O.3     1  UNL1        0.0000
   7200 O           7.6965   44.7615   14.1850 O.3     1  UNL1        0.0000
   7201 O          17.2253   41.7867   14.2312 O.3     1  UNL1        0.0000
   7202 O           3.0709   37.8263   25.0190 O.3     1  UNL1        0.0000
   7203 O          16.4297   39.0323   14.2606 O.3     1  UNL1        0.0000
   7204 O           5.3391   39.6086   25.1003 O.2     1  UNL1        0.0000
   7205 O          12.2974   42.2436   16.1396 O.3     1  UNL1        0.0000
   7206 O           7.5954   35.2398   23.1206 O.3     1  UNL1        0.0000
   7207 O          14.7515   41.0185   13.2068 O.3     1  UNL1        0.0000
   7208 O          10.1838   44.1206   13.0401 O.3     1  UNL1        0.0000
   7209 H          11.4223   37.0443   21.5272 H       1  UNL1        0.0000
   7210 H           7.5007   31.2651   19.8796 H       1  UNL1        0.0000
   7211 H          12.1806   45.9591   18.7520 H      49  UNL49       0.0000
   7212 H          12.5305   38.7841   20.0965 H       1  UNL1        0.0000
   7213 H           7.5867   38.8265   20.7141 H       1  UNL1        0.0000
   7214 H           4.0028   33.7665   19.7780 H       1  UNL1        0.0000
   7215 H           8.9592   37.0596   21.7829 H       1  UNL1        0.0000
   7216 H           8.7009   40.5861   19.3180 H       1  UNL1        0.0000
   7217 H          13.2843   43.7831   18.3117 H      49  UNL49       0.0000
   7218 H          -0.3092   44.0164   18.7541 H      49  UNL49       0.0000
   7219 C          10.6776   39.7780   19.6189 C.ar    1  UNL1        0.0000
   7220 C           9.4429   37.8247   21.1778 C.ar    1  UNL1        0.0000
   7221 C          13.8554   44.5966   18.7595 C.2    49  UNL49       0.0000
   7222 C           5.8240   32.6200   19.8948 C.ar    1  UNL1        0.0000
   7223 C           9.2815   39.8035   19.8007 C.ar    1  UNL1        0.0000
   7224 C          10.8333   37.8100   21.0257 C.ar    1  UNL1        0.0000
   7225 C          13.2293   45.8231   19.0105 C.3    49  UNL49       0.0000
   7226 C           6.4527   31.3924   19.6170 C.ar    1  UNL1        0.0000
   7227 C          15.2086   44.4103   19.0638 C.2    49  UNL49       0.0000
   7228 C           4.4705   32.8090   19.5598 C.ar    1  UNL1        0.0000
   7229 C          11.4524   38.7820   20.2397 C.ar    1  UNL1        0.0000
   7230 C           8.6663   38.8208   20.5738 C.ar    1  UNL1        0.0000
   7231 O          12.5547   40.6325   18.4186 O.3     1  UNL1        0.0000
   7232 O           5.9333   34.7538   20.9518 O.3     1  UNL1        0.0000
   7233 O           7.7576   33.4342   21.0218 O.3     1  UNL1        0.0000
   7234 O          10.5874   41.7124   18.2409 O.3     1  UNL1        0.0000
   7235 N          13.6244   46.0580   38.2426 N.pl3  49  UNL49       0.0000
   7236 N          14.0874   45.3258   40.2465 N.pl3  49  UNL49       0.0000
   7237 C          14.2446   44.8279   38.0928 C.2    49  UNL49       0.0000
   7238 C          14.5351   44.3697   39.3505 C.2    49  UNL49       0.0000
   7239 C          15.4021   46.3770   42.0888 C.3    49  UNL49       0.0000
   7240 C          13.2496   46.9726   37.1570 C.3    49  UNL49       0.0000
   7241 C          13.5439   46.3405   39.5522 C.3    49  UNL49       0.0000
   7242 C          14.3411   45.3492   41.7036 C.3    49  UNL49       0.0000
   7243 H          14.5012   44.4222   37.1240 H      49  UNL49       0.0000
   7244 H          15.0357   43.4678   39.6770 H      49  UNL49       0.0000
   7245 H          16.3634   46.1531   41.6137 H      49  UNL49       0.0000
   7246 H          14.1287   47.1184   36.5202 H      49  UNL49       0.0000
   7247 H          15.1123   47.3894   41.7818 H      49  UNL49       0.0000
   7248 H          12.4294   46.5293   36.5872 H      49  UNL49       0.0000
   7249 H          15.5262   46.3644   43.1791 H      49  UNL49       0.0000
   7250 H          14.6604   44.3351   41.9763 H      49  UNL49       0.0000
   7251 H          12.9558   47.9263   37.6020 H      49  UNL49       0.0000
   7252 H          13.1721   47.2670   39.9658 H      49  UNL49       0.0000
   7253 H          13.3794   45.5403   42.1927 H      49  UNL49       0.0000
   7254 N          16.4338   49.0907   37.7960 N.3    49  UNL49       0.0000
   7255 C          16.3201   50.4718   40.2076 C.3    49  UNL49       0.0000
   7256 C          18.6240   47.5850   37.9839 C.3    49  UNL49       0.0000
   7257 O          15.0877   51.1611   37.9689 O.2    49  UNL49       0.0000
   7258 O          14.2790   49.1481   39.2354 O.2    49  UNL49       0.0000
   7259 O          16.4593   46.8036   36.7278 O.2    49  UNL49       0.0000
   7260 O          16.4169   46.9099   39.2363 O.2    49  UNL49       0.0000
   7261 F          17.3509   51.2952   39.9007 F      49  UNL49       0.0000
   7262 F          19.0813   48.3724   38.9845 F      49  UNL49       0.0000
   7263 F          16.8266   49.4078   40.8866 F      49  UNL49       0.0000
   7264 F          15.4596   51.1358   41.0337 F      49  UNL49       0.0000
   7265 F          19.1119   48.0454   36.7958 F      49  UNL49       0.0000
   7266 F          19.1113   46.3303   38.1709 F      49  UNL49       0.0000
   7267 S          15.3864   49.9250   38.6741 S.O2   49  UNL49       0.0000
   7268 S          16.7624   47.5286   37.9601 S.O2   49  UNL49       0.0000
   7269 TI          0.3231   30.8199   37.4452 Ti      1  UNL1        0.0000
   7270 TI         11.1535   33.7011   28.0804 Ti      1  UNL1        0.0000
   7271 TI          4.4197   26.8837   35.6252 Ti      1  UNL1        0.0000
   7272 TI          5.9309   36.0458   29.8522 Ti      1  UNL1        0.0000
   7273 TI          4.9324   37.7241   27.9478 Ti      1  UNL1        0.0000
   7274 TI          6.3079   26.6293   37.5786 Ti      1  UNL1        0.0000
   7275 TI          1.2723   29.0840   35.5537 Ti      1  UNL1        0.0000
   7276 TI          9.1657   34.0037   29.9279 Ti      1  UNL1        0.0000
   7277 H           0.8249   34.7170   37.2257 H       1  UNL1        0.0000
   7278 H          11.9623   29.7950   28.4011 H       1  UNL1        0.0000
   7279 H          -3.6368   30.0633   37.0627 H       1  UNL1        0.0000
   7280 H          14.5357   35.7054   28.2810 H       1  UNL1        0.0000
   7281 H           7.2836   22.5948   37.1927 H       1  UNL1        0.0000
   7282 H           0.8738   37.1342   28.2699 H       1  UNL1        0.0000
   7283 H           5.4268   36.0873   26.0747 H       1  UNL1        0.0000
   7284 H           9.2780   33.4584   26.3805 H       1  UNL1        0.0000
   7285 H           6.8179   25.9622   32.0675 H       1  UNL1        0.0000
   7286 H           4.2075   37.8828   33.4711 H       1  UNL1        0.0000
   7287 H          -2.8004   32.4726   35.1978 H       1  UNL1        0.0000
   7288 H          13.9083   31.6168   30.3864 H       1  UNL1        0.0000
   7289 H          -0.4993   31.0252   31.8640 H       1  UNL1        0.0000
   7290 H           1.8323   39.5520   30.3010 H       1  UNL1        0.0000
   7291 H           5.3246   40.8270   28.8033 H       1  UNL1        0.0000
   7292 H          11.8045   27.7762   29.6036 H       1  UNL1        0.0000
   7293 H           8.0236   35.7260   28.5136 H       1  UNL1        0.0000
   7294 H           3.3390   28.7321   36.9188 H       1  UNL1        0.0000
   7295 H          10.5427   28.5642   35.9682 H       1  UNL1        0.0000
   7296 H           9.0616   28.0951   36.7156 H       1  UNL1        0.0000
   7297 H          11.1168   32.9978   34.8693 H       1  UNL1        0.0000
   7298 H          10.5471   33.3564   33.2508 H       1  UNL1        0.0000
   7299 H          10.0539   23.6094   35.7782 H       1  UNL1        0.0000
   7300 H           8.7747   24.7100   36.2356 H       1  UNL1        0.0000
   7301 C          11.7316   32.9599   30.9439 C.3     1  UNL1        0.0000
   7302 C          -0.6375   31.0813   34.5982 C.3     1  UNL1        0.0000
   7303 C           7.0002   25.8730   34.7005 C.3     1  UNL1        0.0000
   7304 C           3.9948   38.0163   30.8115 C.3     1  UNL1        0.0000
   7305 C          12.6276   32.3556   31.9391 C.ar    1  UNL1        0.0000
   7306 C          -1.5694   31.7063   33.6211 C.ar    1  UNL1        0.0000
   7307 C           7.9404   25.2586   33.7533 C.ar    1  UNL1        0.0000
   7308 C           3.1050   38.6631   31.8113 C.2     1  UNL1        0.0000
   7309 C          12.3788   32.4305   33.3455 C.ar    1  UNL1        0.0000
   7310 C          -1.3530   31.5863   32.2331 C.ar    1  UNL1        0.0000
   7311 C           9.0699   24.4983   34.2064 C.ar    1  UNL1        0.0000
   7312 C           2.0103   39.4361   31.3664 C.3     1  UNL1        0.0000
   7313 C           3.3595   38.4924   33.1662 C.2     1  UNL1        0.0000
   7314 C           7.6927   25.3908   32.3694 C.ar    1  UNL1        0.0000
   7315 C          13.7613   31.6566   31.4634 C.ar    1  UNL1        0.0000
   7316 C          -2.6696   32.3987   34.1198 C.ar    1  UNL1        0.0000
   7317 C          11.9433   29.8741   26.2570 C.ar    1  UNL1        0.0000
   7318 C           5.4736   41.6657   26.2820 C.2     1  UNL1        0.0000
   7319 C          14.4278   35.6372   26.1310 C.ar    1  UNL1        0.0000
   7320 C           1.0694   37.1797   26.1116 C.ar    1  UNL1        0.0000
   7321 C           6.6777   33.7026   31.8168 C.3     1  UNL1        0.0000
   7322 C           1.9216   26.6083   33.7349 C.3     1  UNL1        0.0000
   7323 C          11.8075   31.3290   26.2338 C.3     1  UNL1        0.0000
   7324 C           5.3809   40.2322   26.2445 C.2     1  UNL1        0.0000
   7325 C          13.1299   35.0204   26.1778 C.3     1  UNL1        0.0000
   7326 C           2.4718   37.5940   26.1360 C.3     1  UNL1        0.0000
   7327 C          11.9827   29.2050   27.4867 C.ar    1  UNL1        0.0000
   7328 C           0.8359   35.3054   38.1396 C.3     1  UNL1        0.0000
   7329 C          15.0831   35.9120   27.3649 C.ar    1  UNL1        0.0000
   7330 C          -4.1983   29.8839   37.9781 C.ar    1  UNL1        0.0000
   7331 C          10.4874   28.8395   37.9926 C.ar    1  UNL1        0.0000
   7332 C           0.3723   36.9493   27.3241 C.ar    1  UNL1        0.0000
   7333 C           7.3252   22.0676   38.1417 C.ar    1  UNL1        0.0000
   7334 C           5.4874   42.4169   27.5113 C.3     1  UNL1        0.0000
   7335 N           5.5424   41.8181   28.7494 N.3     1  UNL1        0.0000
   7336 N           9.9084   28.6567   36.7536 N.pl3   1  UNL1        0.0000
   7337 N          11.2979   33.0767   33.8768 N.pl3   1  UNL1        0.0000
   7338 N           9.4009   24.3401   35.5238 N.pl3   1  UNL1        0.0000
   7339 O          10.5552   33.3650   31.3097 O.3     1  UNL1        0.0000
   7340 O           0.1315   30.1304   34.1999 O.3     1  UNL1        0.0000
   7341 O           7.3817   25.9975   35.9216 O.3     1  UNL1        0.0000
   7342 O           3.9289   38.4460   29.6119 O.3     1  UNL1        0.0000
   7343 O           4.7653   37.0591   31.1980 O.3     1  UNL1        0.0000
   7344 O           5.8298   26.2414   34.2950 O.3     1  UNL1        0.0000
   7345 O          12.1434   33.0406   29.7322 O.3     1  UNL1        0.0000
   7346 O          -0.6795   31.5175   35.7979 O.3     1  UNL1        0.0000
   7347 O           9.4709   32.7857   28.7332 O.3     1  UNL1        0.0000
   7348 O           1.8247   30.6444   36.2982 O.3     1  UNL1        0.0000
   7349 O          10.4097   35.0730   29.1831 O.3     1  UNL1        0.0000
   7350 O           0.0725   28.9197   36.7909 O.3     1  UNL1        0.0000
   7351 O           4.6790   25.7117   36.8856 O.3     1  UNL1        0.0000
   7352 O           6.4475   37.6071   29.1137 O.3     1  UNL1        0.0000
   7353 O           5.6330   27.9732   36.4215 O.3     1  UNL1        0.0000
   7354 O           4.7413   35.8500   28.5963 O.3     1  UNL1        0.0000
   7355 O           7.0503   24.8575   38.1877 O.3     1  UNL1        0.0000
   7356 O           5.2977   39.5308   27.3397 O.2     1  UNL1        0.0000
   7357 O           7.8524   27.6457   38.1826 O.3     1  UNL1        0.0000
   7358 O           3.0618   37.6950   27.2796 O.3     1  UNL1        0.0000
   7359 O          12.5906   34.7202   27.3258 O.3     1  UNL1        0.0000
   7360 O          -1.5637   30.7598   38.1136 O.3     1  UNL1        0.0000
   7361 O          11.7950   31.9659   27.3552 O.3     1  UNL1        0.0000
   7362 O           0.7045   32.5422   38.1949 O.2     1  UNL1        0.0000
   7363 O           7.6627   35.1772   29.2342 O.3     1  UNL1        0.0000
   7364 O           2.9608   28.1734   36.2152 O.3     1  UNL1        0.0000
   7365 O          10.1168   33.9521   26.3014 O.3     1  UNL1        0.0000
   7366 O           5.5492   37.0541   26.1347 O.3     1  UNL1        0.0000
   7367 H           6.7877   29.9779   34.6218 H       1  UNL1        0.0000
   7368 H           2.8660   24.1987   32.9742 H       1  UNL1        0.0000
   7369 H           7.5459   38.8926   31.8466 H      49  UNL49       0.0000
   7370 H           7.8959   31.7177   33.1911 H       1  UNL1        0.0000
   7371 H           2.9521   31.7601   33.8087 H       1  UNL1        0.0000
   7372 H          -0.6319   26.7001   32.8726 H       1  UNL1        0.0000
   7373 H           4.3245   29.9932   34.8775 H       1  UNL1        0.0000
   7374 H           4.0662   33.5196   32.4126 H       1  UNL1        0.0000
   7375 H           8.6496   36.7166   31.4063 H      49  UNL49       0.0000
   7376 H          -4.9438   36.9500   31.8487 H      49  UNL49       0.0000
   7377 C           6.0430   32.7115   32.7135 C.ar    1  UNL1        0.0000
   7378 C           4.8082   30.7583   34.2724 C.ar    1  UNL1        0.0000
   7379 C           9.2208   37.5301   31.8541 C.2    49  UNL49       0.0000
   7380 C           1.1893   25.5536   32.9895 C.ar    1  UNL1        0.0000
   7381 C           4.6469   32.7371   32.8953 C.ar    1  UNL1        0.0000
   7382 C           6.1987   30.7436   34.1203 C.ar    1  UNL1        0.0000
   7383 C           8.5947   38.7566   32.1051 C.3    49  UNL49       0.0000
   7384 C           1.8181   24.3260   32.7117 C.ar    1  UNL1        0.0000
   7385 C          10.5739   37.3439   32.1584 C.2    49  UNL49       0.0000
   7386 C          -0.1641   25.7426   32.6544 C.ar    1  UNL1        0.0000
   7387 C           6.8178   31.7156   33.3343 C.ar    1  UNL1        0.0000
   7388 C           4.0317   31.7544   33.6684 C.ar    1  UNL1        0.0000
   7389 O           7.9200   33.5661   31.5132 O.3     1  UNL1        0.0000
   7390 O           1.2987   27.6874   34.0464 O.3     1  UNL1        0.0000
   7391 O           3.1230   26.3677   34.1164 O.3     1  UNL1        0.0000
   7392 O           5.9528   34.6459   31.3355 O.3     1  UNL1        0.0000
   7393 N           8.9897   38.9916   51.3372 N.pl3  49  UNL49       0.0000
   7394 N           9.4528   38.2594   53.3411 N.pl3  49  UNL49       0.0000
   7395 C           9.6099   37.7614   51.1874 C.2    49  UNL49       0.0000
   7396 C           9.9005   37.3033   52.4451 C.2    49  UNL49       0.0000
   7397 C          10.7675   39.3105   55.1834 C.3    49  UNL49       0.0000
   7398 C           8.6150   39.9062   50.2516 C.3    49  UNL49       0.0000
   7399 C           8.9093   39.2741   52.6468 C.3    49  UNL49       0.0000
   7400 C           9.7064   38.2828   54.7982 C.3    49  UNL49       0.0000
   7401 H           9.8665   37.3558   50.2186 H      49  UNL49       0.0000
   7402 H          10.4010   36.4014   52.7716 H      49  UNL49       0.0000
   7403 H          11.7288   39.0867   54.7083 H      49  UNL49       0.0000
   7404 H           9.4941   40.0519   49.6148 H      49  UNL49       0.0000
   7405 H          10.4776   40.3230   54.8764 H      49  UNL49       0.0000
   7406 H           7.7947   39.4628   49.6818 H      49  UNL49       0.0000
   7407 H          10.8915   39.2980   56.2737 H      49  UNL49       0.0000
   7408 H          10.0257   37.2687   55.0709 H      49  UNL49       0.0000
   7409 H           8.3211   40.8598   50.6966 H      49  UNL49       0.0000
   7410 H           8.5375   40.2005   53.0604 H      49  UNL49       0.0000
   7411 H           8.7447   38.4739   55.2873 H      49  UNL49       0.0000
   7412 N          11.7992   42.0243   50.8906 N.3    49  UNL49       0.0000
   7413 C          11.6854   43.4054   53.3022 C.3    49  UNL49       0.0000
   7414 C          13.9893   40.5186   51.0785 C.3    49  UNL49       0.0000
   7415 O          10.4531   44.0947   51.0635 O.2    49  UNL49       0.0000
   7416 O           9.6443   42.0817   52.3300 O.2    49  UNL49       0.0000
   7417 O          11.8246   39.7372   49.8224 O.2    49  UNL49       0.0000
   7418 O          11.7822   39.8434   52.3310 O.2    49  UNL49       0.0000
   7419 F          12.7163   44.2288   52.9953 F      49  UNL49       0.0000
   7420 F          14.4467   41.3060   52.0791 F      49  UNL49       0.0000
   7421 F          12.1920   42.3414   53.9812 F      49  UNL49       0.0000
   7422 F          10.8249   44.0694   54.1283 F      49  UNL49       0.0000
   7423 F          14.4772   40.9789   49.8904 F      49  UNL49       0.0000
   7424 F          14.4767   39.2639   51.2656 F      49  UNL49       0.0000
   7425 S          10.7517   42.8586   51.7687 S.O2   49  UNL49       0.0000
   7426 S          12.1278   40.4621   51.0547 S.O2   49  UNL49       0.0000
   7427 TI         -4.3116   23.7534   50.5398 Ti      1  UNL1        0.0000
   7428 TI          6.5189   26.6347   41.1750 Ti      1  UNL1        0.0000
   7429 TI         -0.2149   19.8173   48.7198 Ti      1  UNL1        0.0000
   7430 TI          1.2963   28.9794   42.9468 Ti      1  UNL1        0.0000
   7431 TI          0.2977   30.6577   41.0424 Ti      1  UNL1        0.0000
   7432 TI          1.6733   19.5629   50.6732 Ti      1  UNL1        0.0000
   7433 TI         -3.3624   22.0176   48.6483 Ti      1  UNL1        0.0000
   7434 TI          4.5311   26.9372   43.0225 Ti      1  UNL1        0.0000
   7435 H          -3.8097   27.6505   50.3204 H      49  UNL49       0.0000
   7436 H           7.3277   22.7286   41.4957 H       1  UNL1        0.0000
   7437 H          -8.2715   22.9968   50.1574 H      49  UNL49       0.0000
   7438 H           9.9010   28.6390   41.3757 H       1  UNL1        0.0000
   7439 H           2.6489   15.5284   50.2873 H      49  UNL49       0.0000
   7440 H          -3.7608   30.0678   41.3645 H       1  UNL1        0.0000
   7441 H           0.7922   29.0209   39.1693 H       1  UNL1        0.0000
   7442 H           4.6434   26.3920   39.4751 H       1  UNL1        0.0000
   7443 H           2.1832   18.8958   45.1621 H       1  UNL1        0.0000
   7444 H          -0.4272   30.8164   46.5658 H       1  UNL1        0.0000
   7445 H          -7.4350   25.4062   48.2924 H       1  UNL1        0.0000
   7446 H           9.2736   24.5503   43.4810 H       1  UNL1        0.0000
   7447 H          -5.1339   23.9587   44.9586 H       1  UNL1        0.0000
   7448 H          -2.8024   32.4856   43.3956 H       1  UNL1        0.0000
   7449 H           0.6900   33.7605   41.8979 H       1  UNL1        0.0000
   7450 H           7.1698   20.7098   42.6982 H       1  UNL1        0.0000
   7451 H           3.3889   28.6595   41.6082 H       1  UNL1        0.0000
   7452 H          -1.2956   21.6656   50.0135 H       1  UNL1        0.0000
   7453 H           5.9080   21.4978   49.0629 H      49  UNL49       0.0000
   7454 H           4.4269   21.0287   49.8102 H      49  UNL49       0.0000
   7455 H           6.4822   25.9314   47.9640 H       1  UNL1        0.0000
   7456 H           5.9124   26.2900   46.3454 H       1  UNL1        0.0000
   7457 H           5.4192   16.5429   48.8728 H       1  UNL1        0.0000
   7458 H           4.1401   17.6435   49.3302 H       1  UNL1        0.0000
   7459 C           7.0969   25.8934   44.0385 C.3     1  UNL1        0.0000
   7460 C          -5.2721   24.0148   47.6928 C.3     1  UNL1        0.0000
   7461 C           2.3656   18.8065   47.7951 C.3     1  UNL1        0.0000
   7462 C          -0.6398   30.9499   43.9062 C.3     1  UNL1        0.0000
   7463 C           7.9929   25.2891   45.0337 C.ar    1  UNL1        0.0000
   7464 C          -6.2040   24.6399   46.7157 C.ar    1  UNL1        0.0000
   7465 C           3.3058   18.1922   46.8479 C.ar    1  UNL1        0.0000
   7466 C          -1.5296   31.5967   44.9059 C.2     1  UNL1        0.0000
   7467 C           7.7442   25.3640   46.4401 C.ar    1  UNL1        0.0000
   7468 C          -5.9876   24.5199   45.3277 C.ar    1  UNL1        0.0000
   7469 C           4.4353   17.4319   47.3010 C.ar    1  UNL1        0.0000
   7470 C          -2.6244   32.3697   44.4610 C.3     1  UNL1        0.0000
   7471 C          -1.2752   31.4259   46.2608 C.2     1  UNL1        0.0000
   7472 C           3.0581   18.3243   45.4640 C.ar    1  UNL1        0.0000
   7473 C           9.1266   24.5901   44.5580 C.ar    1  UNL1        0.0000
   7474 C          -7.3042   25.3323   47.2144 C.ar    1  UNL1        0.0000
   7475 C           7.3087   22.8077   39.3516 C.ar    1  UNL1        0.0000
   7476 C           0.8390   34.5993   39.3766 C.2     1  UNL1        0.0000
   7477 C           9.7931   28.5708   39.2256 C.ar    1  UNL1        0.0000
   7478 C          -3.5652   30.1132   39.2062 C.ar    1  UNL1        0.0000
   7479 C           2.0430   26.6362   44.9114 C.3     1  UNL1        0.0000
   7480 C          -2.7131   19.5418   46.8295 C.3     1  UNL1        0.0000
   7481 C           7.1728   24.2625   39.3284 C.3     1  UNL1        0.0000
   7482 C           0.7462   33.1658   39.3391 C.2     1  UNL1        0.0000
   7483 C           8.4953   27.9540   39.2724 C.3     1  UNL1        0.0000
   7484 C          -2.1629   30.5276   39.2307 C.3     1  UNL1        0.0000
   7485 C           7.3480   22.1386   40.5813 C.ar    1  UNL1        0.0000
   7486 C          -3.7988   28.2389   51.2342 C.3    66  UNL66       0.0000
   7487 C          10.4484   28.8456   40.4595 C.ar    1  UNL1        0.0000
   7488 C          -8.8330   22.8174   51.0727 C.2    49  UNL49       0.0000
   7489 C           5.8528   21.7731   51.0872 C.2    49  UNL49       0.0000
   7490 C          -4.2624   29.8828   40.4187 C.ar    1  UNL1        0.0000
   7491 C           2.6905   15.0012   51.2363 C.2    49  UNL49       0.0000
   7492 C           0.8527   35.3505   40.6059 C.3     1  UNL1        0.0000
   7493 N           0.9078   34.7516   41.8440 N.3     1  UNL1        0.0000
   7494 N           5.2738   21.5902   49.8482 N.pl3  49  UNL49       0.0000
   7495 N           6.6633   26.0103   46.9714 N.pl3   1  UNL1        0.0000
   7496 N           4.7663   17.2737   48.6184 N.pl3   1  UNL1        0.0000
   7497 O           5.9206   26.2985   44.4043 O.3     1  UNL1        0.0000
   7498 O          -4.5031   23.0640   47.2945 O.3     1  UNL1        0.0000
   7499 O           2.7471   18.9310   49.0162 O.3     1  UNL1        0.0000
   7500 O          -0.7057   31.3796   42.7066 O.3     1  UNL1        0.0000
   7501 O           0.1306   29.9927   44.2926 O.3     1  UNL1        0.0000
   7502 O           1.1952   19.1750   47.3896 O.3     1  UNL1        0.0000
   7503 O           7.5088   25.9742   42.8268 O.3     1  UNL1        0.0000
   7504 O          -5.3142   24.4511   48.8925 O.3     1  UNL1        0.0000
   7505 O           4.8363   25.7193   41.8278 O.3     1  UNL1        0.0000
   7506 O          -2.8099   23.5779   49.3928 O.3     1  UNL1        0.0000
   7507 O           5.7751   28.0066   42.2777 O.3     1  UNL1        0.0000
   7508 O          -4.5621   21.8532   49.8855 O.3     1  UNL1        0.0000
   7509 O           0.0444   18.6453   49.9802 O.3     1  UNL1        0.0000
   7510 O           1.8128   30.5407   42.2083 O.3     1  UNL1        0.0000
   7511 O           0.9984   20.9068   49.5161 O.3     1  UNL1        0.0000
   7512 O           0.1066   28.7836   41.6909 O.3     1  UNL1        0.0000
   7513 O           2.4156   17.7911   51.2823 O.3     1  UNL1        0.0000
   7514 O           0.6631   32.4643   40.4343 O.2     1  UNL1        0.0000
   7515 O           3.2178   20.5792   51.2772 O.3     1  UNL1        0.0000
   7516 O          -1.5728   30.6286   40.3742 O.3     1  UNL1        0.0000
   7517 O           7.9560   27.6538   40.4204 O.3     1  UNL1        0.0000
   7518 O          -6.1984   23.6934   51.2082 O.3     1  UNL1        0.0000
   7519 O           7.1604   24.8995   40.4498 O.3     1  UNL1        0.0000
   7520 O          -3.9302   25.4757   51.2895 O.3     1  UNL1        0.0000
   7521 O           3.0281   28.1108   42.3288 O.3     1  UNL1        0.0000
   7522 O          -1.6739   21.1070   49.3099 O.3     1  UNL1        0.0000
   7523 O           5.4822   26.8856   39.3960 O.3     1  UNL1        0.0000
   7524 O           0.9145   29.9877   39.2293 O.3     1  UNL1        0.0000
   7525 H           2.1530   22.9114   47.7164 H       1  UNL1        0.0000
   7526 H          -1.7686   17.1322   46.0688 H       1  UNL1        0.0000
   7527 H           2.9113   31.8262   44.9413 H      49  UNL49       0.0000
   7528 H           3.2612   24.6513   46.2857 H       1  UNL1        0.0000
   7529 H          -1.6826   24.6936   46.9033 H       1  UNL1        0.0000
   7530 H          -5.2665   19.6337   45.9672 H       1  UNL1        0.0000
   7531 H          -0.3101   22.9267   47.9721 H       1  UNL1        0.0000
   7532 H          -0.5684   26.4532   45.5072 H       1  UNL1        0.0000
   7533 H           4.0150   29.6502   44.5010 H      49  UNL49       0.0000
   7534 H          -9.5785   29.8835   44.9433 H      49  UNL49       0.0000
   7535 C           1.4083   25.6451   45.8081 C.ar    1  UNL1        0.0000
   7536 C           0.1736   23.6918   47.3670 C.ar    1  UNL1        0.0000
   7537 C           4.5861   30.4637   44.9487 C.2    49  UNL49       0.0000
   7538 C          -3.4453   18.4872   46.0841 C.ar    1  UNL1        0.0000
   7539 C           0.0122   25.6706   45.9900 C.ar    1  UNL1        0.0000
   7540 C           1.5640   23.6771   47.2149 C.ar    1  UNL1        0.0000
   7541 C           3.9600   31.6902   45.1997 C.3    49  UNL49       0.0000
   7542 C          -2.8166   17.2595   45.8063 C.ar    1  UNL1        0.0000
   7543 C           5.9393   30.2774   45.2530 C.2    49  UNL49       0.0000
   7544 C          -4.7988   18.6761   45.7490 C.ar    1  UNL1        0.0000
   7545 C           2.1831   24.6492   46.4289 C.ar    1  UNL1        0.0000
   7546 C          -0.6030   24.6880   46.7630 C.ar    1  UNL1        0.0000
   7547 O           3.2854   26.4997   44.6078 O.3     1  UNL1        0.0000
   7548 O          -3.3360   20.6210   47.1410 O.3     1  UNL1        0.0000
   7549 O          -1.5117   19.3013   47.2110 O.3     1  UNL1        0.0000
   7550 O           1.3181   27.5795   44.4301 O.3     1  UNL1        0.0000
   7551 N           4.3551   31.9251   64.4318 N.pl3  49  UNL49       0.0000
   7552 N           4.8181   31.1929   66.4357 N.pl3  49  UNL49       0.0000
   7553 C           4.9753   30.6950   64.2820 C.2    49  UNL49       0.0000
   7554 C           5.2658   30.2369   65.5397 C.2    49  UNL49       0.0000
   7555 C           6.1328   32.2441   68.2780 C.3    49  UNL49       0.0000
   7556 C           3.9803   32.8397   63.3462 C.3    49  UNL49       0.0000
   7557 C           4.2746   32.2077   65.7414 C.3    49  UNL49       0.0000
   7558 C           5.0718   31.2164   67.8928 C.3    49  UNL49       0.0000
   7559 H           5.2319   30.2894   63.3132 H      49  UNL49       0.0000
   7560 H           5.7664   29.3350   65.8662 H      49  UNL49       0.0000
   7561 H           7.0942   32.0202   67.8029 H      49  UNL49       0.0000
   7562 H           4.8594   32.9855   62.7095 H      49  UNL49       0.0000
   7563 H           5.8430   33.2566   67.9710 H      49  UNL49       0.0000
   7564 H           3.1601   32.3964   62.7764 H      49  UNL49       0.0000
   7565 H           6.2569   32.2315   69.3683 H      49  UNL49       0.0000
   7566 H           5.3911   30.2022   68.1656 H      49  UNL49       0.0000
   7567 H           3.6865   33.7934   63.7912 H      49  UNL49       0.0000
   7568 H           3.9028   33.1341   66.1550 H      49  UNL49       0.0000
   7569 H           4.1101   31.4075   68.3819 H      49  UNL49       0.0000
   7570 N           7.1645   34.9579   63.9852 N.3    49  UNL49       0.0000
   7571 C           7.0508   36.3390   66.3968 C.3    49  UNL49       0.0000
   7572 C           9.3547   33.4522   64.1731 C.3    49  UNL49       0.0000
   7573 O           5.8184   37.0282   64.1581 O.2    49  UNL49       0.0000
   7574 O           5.0097   35.0152   65.4246 O.2    49  UNL49       0.0000
   7575 O           7.1900   32.6708   62.9170 O.2    49  UNL49       0.0000
   7576 O           7.1476   32.7770   65.4256 O.2    49  UNL49       0.0000
   7577 F           8.0816   37.1623   66.0899 F      49  UNL49       0.0000
   7578 F           9.8120   34.2395   65.1737 F      49  UNL49       0.0000
   7579 F           7.5573   35.2749   67.0759 F      49  UNL49       0.0000
   7580 F           6.1903   37.0030   67.2229 F      49  UNL49       0.0000
   7581 F           9.8426   33.9125   62.9850 F      49  UNL49       0.0000
   7582 F           9.8421   32.1975   64.3602 F      49  UNL49       0.0000
   7583 S           6.1171   35.7921   64.8633 S.O2   49  UNL49       0.0000
   7584 S           7.4931   33.3957   64.1493 S.O2   49  UNL49       0.0000
   7585 TI         45.1429    0.5580   11.5151 Ti      1  UNL1        0.0000
   7586 TI         55.9734    3.4392    2.1503 Ti      1  UNL1        0.0000
   7587 TI         49.2396   -3.3782    9.6951 Ti      1  UNL1        0.0000
   7588 TI         50.7508    5.7839    3.9221 Ti      1  UNL1        0.0000
   7589 TI         49.7522    7.4622    2.0177 Ti      1  UNL1        0.0000
   7590 TI         51.1278   -3.6326   11.6485 Ti      1  UNL1        0.0000
   7591 TI         46.0921   -1.1779    9.6236 Ti      1  UNL1        0.0000
   7592 TI         53.9855    3.7417    3.9978 Ti      1  UNL1        0.0000
   7593 H          45.6448    4.4551   11.2957 H       1  UNL1        0.0000
   7594 H          56.7821   -0.4669    2.4710 H       1  UNL1        0.0000
   7595 H          41.1830   -0.1987   11.1327 H       1  UNL1        0.0000
   7596 H          59.3555    5.4435    2.3509 H       1  UNL1        0.0000
   7597 H          52.1034   -7.6671   11.2626 H       1  UNL1        0.0000
   7598 H          45.6937    6.8723    2.3398 H       1  UNL1        0.0000
   7599 H          50.2466    5.8254    0.1446 H       1  UNL1        0.0000
   7600 H          54.0978    3.1965    0.4504 H       1  UNL1        0.0000
   7601 H          51.6377   -4.2997    6.1374 H       1  UNL1        0.0000
   7602 H          49.0273    7.6209    7.5411 H       1  UNL1        0.0000
   7603 H          42.0195    2.2107    9.2677 H       1  UNL1        0.0000
   7604 H          58.7281    1.3549    4.4563 H       1  UNL1        0.0000
   7605 H          44.3206    0.7633    5.9339 H       1  UNL1        0.0000
   7606 H          46.6521    9.2901    4.3709 H       1  UNL1        0.0000
   7607 H          50.1444   10.5650    2.8732 H       1  UNL1        0.0000
   7608 H          56.6243   -2.4857    3.6735 H      67  UNL67       0.0000
   7609 H          52.8434    5.4640    2.5835 H       1  UNL1        0.0000
   7610 H          48.1589   -1.5298   10.9887 H       1  UNL1        0.0000
   7611 H          55.3625   -1.6977   10.0382 H       1  UNL1        0.0000
   7612 H          53.8814   -2.1668   10.7855 H       1  UNL1        0.0000
   7613 H          55.9366    2.7359    8.9393 H       1  UNL1        0.0000
   7614 H          55.3669    3.0945    7.3207 H       1  UNL1        0.0000
   7615 H          54.8737   -6.6526    9.8481 H       1  UNL1        0.0000
   7616 H          53.5945   -5.5520   10.3055 H       1  UNL1        0.0000
   7617 C          56.5514    2.6979    5.0138 C.2     1  UNL1        0.0000
   7618 C          44.1823    0.8194    8.6681 C.3     1  UNL1        0.0000
   7619 C          51.8201   -4.3889    8.7704 C.3     1  UNL1        0.0000
   7620 C          48.8146    7.7544    4.8815 C.3     1  UNL1        0.0000
   7621 C          57.4474    2.0936    6.0090 C.2     1  UNL1        0.0000
   7622 C          43.2504    1.4444    7.6910 C.ar    1  UNL1        0.0000
   7623 C          52.7603   -5.0033    7.8232 C.2     1  UNL1        0.0000
   7624 C          47.9248    8.4012    5.8812 C.ar    1  UNL1        0.0000
   7625 C          57.1986    2.1685    7.4154 C.3     1  UNL1        0.0000
   7626 C          43.4668    1.3244    6.3030 C.ar    1  UNL1        0.0000
   7627 C          53.8897   -5.7636    8.2763 C.2     1  UNL1        0.0000
   7628 C          46.8301    9.1742    5.4363 C.ar    1  UNL1        0.0000
   7629 C          48.1793    8.2305    7.2361 C.ar    1  UNL1        0.0000
   7630 C          52.5126   -4.8711    6.4393 C.3     1  UNL1        0.0000
   7631 C          58.5811    1.3946    5.5333 C.3     1  UNL1        0.0000
   7632 C          42.1503    2.1368    8.1897 C.ar    1  UNL1        0.0000
   7633 C          56.7632   -0.3878    0.3269 C.2     1  UNL1        0.0000
   7634 C          50.2934   11.4038    0.3519 C.2     1  UNL1        0.0000
   7635 C          59.2476    5.3753    0.2009 C.2     1  UNL1        0.0000
   7636 C          45.8893    6.9177    0.1815 C.2     1  UNL1        0.0000
   7637 C          51.4975    3.4407    5.8867 C.3     1  UNL1        0.0000
   7638 C          46.7414   -3.6536    7.8048 C.2     1  UNL1        0.0000
   7639 C          56.6273    1.0671    0.3037 C.2     1  UNL1        0.0000
   7640 C          50.2007    9.9703    0.3144 C.2     1  UNL1        0.0000
   7641 C          57.9498    4.7585    0.2477 C.2     1  UNL1        0.0000
   7642 C          47.2916    7.3321    0.2060 C.2     1  UNL1        0.0000
   7643 C          56.8025   -1.0569    1.5566 C.3     1  UNL1        0.0000
   7644 C          45.6557    5.0435   12.2095 C.ar    1  UNL1        0.0000
   7645 C          59.9029    5.6501    1.4348 C.3     1  UNL1        0.0000
   7646 C          40.6215   -0.3780   12.0480 C.ar    1  UNL1        0.0000
   7647 C          55.3072   -1.4224   12.0625 C.3     1  UNL1        0.0000
   7648 C          45.1921    6.6873    1.3940 C.2     1  UNL1        0.0000
   7649 C          52.1450   -8.1943   12.2116 C.3     1  UNL1        0.0000
   7650 C          50.3072   12.1550    1.5812 C.2     1  UNL1        0.0000
   7651 N          50.3623   11.5561    2.8193 N.pl3   1  UNL1        0.0000
   7652 N          54.7282   -1.6052   10.8235 N.3     1  UNL1        0.0000
   7653 N          56.1178    2.8148    7.9467 N.3     1  UNL1        0.0000
   7654 N          54.2207   -5.9218    9.5937 N.pl3   1  UNL1        0.0000
   7655 O          55.3751    3.1030    5.3796 O.2     1  UNL1        0.0000
   7656 O          44.9513   -0.1315    8.2698 O.3     1  UNL1        0.0000
   7657 O          52.2015   -4.2645    9.9915 O.3     1  UNL1        0.0000
   7658 O          48.7488    8.1841    3.6819 O.3     1  UNL1        0.0000
   7659 O          49.5851    6.7972    5.2679 O.3     1  UNL1        0.0000
   7660 O          50.6496   -4.0205    8.3649 O.3     1  UNL1        0.0000
   7661 O          56.9633    2.7787    3.8021 O.2     1  UNL1        0.0000
   7662 O          44.1403    1.2556    9.8678 O.3     1  UNL1        0.0000
   7663 O          54.2908    2.5238    2.8031 O.3     1  UNL1        0.0000
   7664 O          46.6445    0.3824   10.3681 O.3     1  UNL1        0.0000
   7665 O          55.2295    4.8111    3.2530 O.3     1  UNL1        0.0000
   7666 O          44.8924   -1.3422   10.8608 O.3     1  UNL1        0.0000
   7667 O          49.4989   -4.5502   10.9555 O.3     1  UNL1        0.0000
   7668 O          51.2673    7.3452    3.1836 O.3     1  UNL1        0.0000
   7669 O          50.4528   -2.2887   10.4914 O.3     1  UNL1        0.0000
   7670 O          49.5611    5.5881    2.6662 O.3     1  UNL1        0.0000
   7671 O          51.8701   -5.4044   12.2576 O.2     1  UNL1        0.0000
   7672 O          50.1176    9.2688    1.4096 O.2     1  UNL1        0.0000
   7673 O          52.6722   -2.6163   12.2525 O.2     1  UNL1        0.0000
   7674 O          47.8816    7.4331    1.3495 O.2     1  UNL1        0.0000
   7675 O          57.4104    4.4583    1.3957 O.2     1  UNL1        0.0000
   7676 O          43.2561    0.4979   12.1835 O.3     1  UNL1        0.0000
   7677 O          56.6149    1.7040    1.4251 O.2     1  UNL1        0.0000
   7678 O          45.5243    2.2803   12.2648 O.3     1  UNL1        0.0000
   7679 O          52.4825    4.9153    3.3041 O.3     1  UNL1        0.0000
   7680 O          47.7806   -2.0885   10.2852 O.3     1  UNL1        0.0000
   7681 O          54.9367    3.6902    0.3713 O.3     1  UNL1        0.0000
   7682 O          50.3690    6.7922    0.2046 O.3     1  UNL1        0.0000
   7683 H          51.6075   -0.2841    8.6917 H       1  UNL1        0.0000
   7684 H          47.6859   -6.0632    7.0441 H       1  UNL1        0.0000
   7685 H          52.3657    8.6307    5.9166 H      49  UNL49       0.0000
   7686 H          52.7157    1.4558    7.2610 H       1  UNL1        0.0000
   7687 H          47.7719    1.4982    7.8786 H       1  UNL1        0.0000
   7688 H          44.1879   -3.5618    6.9425 H       1  UNL1        0.0000
   7689 H          49.1444   -0.2687    8.9474 H       1  UNL1        0.0000
   7690 H          48.8860    3.2577    6.4825 H       1  UNL1        0.0000
   7691 H          53.4695    6.4547    5.4763 H      49  UNL49       0.0000
   7692 H          39.8760    6.6881    5.9186 H       1  UNL1        0.0000
   7693 C          50.8628    2.4496    6.7834 C.ar    1  UNL1        0.0000
   7694 C          49.6281    0.4963    8.3423 C.ar    1  UNL1        0.0000
   7695 C          54.0406    7.2682    5.9240 C.2    49  UNL49       0.0000
   7696 C          46.0092   -4.7083    7.0594 C.2     1  UNL1        0.0000
   7697 C          49.4667    2.4752    6.9652 C.ar    1  UNL1        0.0000
   7698 C          51.0185    0.4816    8.1902 C.ar    1  UNL1        0.0000
   7699 C          53.4145    8.4947    6.1750 C.2    49  UNL49       0.0000
   7700 C          46.6379   -5.9360    6.7816 C.3     1  UNL1        0.0000
   7701 C          55.3938    7.0819    6.2283 C.3    49  UNL49       0.0000
   7702 C          44.6557   -4.5193    6.7243 C.3     1  UNL1        0.0000
   7703 C          51.6376    1.4537    7.4042 C.ar    1  UNL1        0.0000
   7704 C          48.8515    1.4925    7.7383 C.ar    1  UNL1        0.0000
   7705 O          52.7398    3.3042    5.5831 O.3     1  UNL1        0.0000
   7706 O          46.1185   -2.5745    8.1163 O.2     1  UNL1        0.0000
   7707 O          47.9428   -3.8942    8.1863 O.2     1  UNL1        0.0000
   7708 O          50.7726    4.3840    5.4054 O.3     1  UNL1        0.0000
   7709 N          53.8095    8.7296   25.4071 N.pl3  49  UNL49       0.0000
   7710 N          54.2726    7.9975   27.4110 N.pl3  49  UNL49       0.0000
   7711 C          54.4297    7.4995   25.2573 C.2    49  UNL49       0.0000
   7712 C          54.7203    7.0414   26.5150 C.2    49  UNL49       0.0000
   7713 C          55.5873    9.0486   29.2533 C.3    49  UNL49       0.0000
   7714 C          53.4348    9.6442   24.3215 C.3    49  UNL49       0.0000
   7715 C          53.7291    9.0122   26.7167 C.3    49  UNL49       0.0000
   7716 C          54.5262    8.0209   28.8681 C.3    49  UNL49       0.0000
   7717 H          54.6863    7.0939   24.2885 H      49  UNL49       0.0000
   7718 H          55.2208    6.1395   26.8415 H      49  UNL49       0.0000
   7719 H          56.5486    8.8248   28.7782 H      49  UNL49       0.0000
   7720 H          54.3139    9.7900   23.6848 H      49  UNL49       0.0000
   7721 H          55.2974   10.0611   28.9463 H      49  UNL49       0.0000
   7722 H          52.6146    9.2009   23.7517 H      49  UNL49       0.0000
   7723 H          55.7114    9.0360   30.3436 H      49  UNL49       0.0000
   7724 H          54.8456    7.0067   29.1408 H      49  UNL49       0.0000
   7725 H          53.1409   10.5979   24.7665 H      49  UNL49       0.0000
   7726 H          53.3573    9.9386   27.1303 H      49  UNL49       0.0000
   7727 H          53.5645    8.2120   29.3572 H      49  UNL49       0.0000
   7728 N          56.6190   11.7624   24.9605 N.3    49  UNL49       0.0000
   7729 C          56.5053   13.1435   27.3721 C.3    49  UNL49       0.0000
   7730 C          58.8092   10.2567   25.1484 C.3    49  UNL49       0.0000
   7731 O          55.2729   13.8328   25.1334 O.2    49  UNL49       0.0000
   7732 O          54.4641   11.8197   26.3999 O.2    49  UNL49       0.0000
   7733 O          56.6444    9.4753   23.8923 O.2    49  UNL49       0.0000
   7734 O          56.6021    9.5815   26.4009 O.2    49  UNL49       0.0000
   7735 F          57.5361   13.9669   27.0652 F      49  UNL49       0.0000
   7736 F          59.2665   11.0441   26.1490 F      49  UNL49       0.0000
   7737 F          57.0118   12.0794   28.0511 F      49  UNL49       0.0000
   7738 F          55.6447   13.8075   28.1982 F      49  UNL49       0.0000
   7739 F          59.2970   10.7170   23.9603 F      49  UNL49       0.0000
   7740 F          59.2965    9.0020   25.3355 F      49  UNL49       0.0000
   7741 S          55.5716   12.5967   25.8386 S.O2   49  UNL49       0.0000
   7742 S          56.9476   10.2002   25.1246 S.O2   49  UNL49       0.0000
   7743 TI         40.5082   -6.5085   24.6097 Ti      1  UNL1        0.0000
   7744 TI         51.3387   -3.6273   15.2449 Ti      1  UNL1        0.0000
   7745 TI         44.6049  -10.4447   22.7897 Ti      1  UNL1        0.0000
   7746 TI         46.1161   -1.2825   17.0167 Ti      1  UNL1        0.0000
   7747 TI         45.1175    0.3958   15.1123 Ti      1  UNL1        0.0000
   7748 TI         46.4931  -10.6990   24.7431 Ti      1  UNL1        0.0000
   7749 TI         41.4574   -8.2444   22.7182 Ti      1  UNL1        0.0000
   7750 TI         49.3509   -3.3247   17.0924 Ti      1  UNL1        0.0000
   7751 H          41.0101   -2.6114   24.3903 H       1  UNL1        0.0000
   7752 H          52.1475   -7.5333   15.5656 H       1  UNL1        0.0000
   7753 H          36.5483   -7.2651   24.2273 H       1  UNL1        0.0000
   7754 H          54.7209   -1.6230   15.4456 H       1  UNL1        0.0000
   7755 H          47.4687  -14.7336   24.3572 H       1  UNL1        0.0000
   7756 H          41.0590   -0.1941   15.4344 H       1  UNL1        0.0000
   7757 H          45.6120   -1.2410   13.2392 H       1  UNL1        0.0000
   7758 H          49.4632   -3.8700   13.5450 H       1  UNL1        0.0000
   7759 H          47.0030  -11.3661   19.2320 H       1  UNL1        0.0000
   7760 H          44.3927    0.5545   20.6357 H       1  UNL1        0.0000
   7761 H          37.3848   -4.8557   22.3623 H       1  UNL1        0.0000
   7762 H          54.0935   -5.7116   17.5509 H       1  UNL1        0.0000
   7763 H          39.6859   -6.3032   19.0285 H       1  UNL1        0.0000
   7764 H          42.0175    2.2236   17.4656 H       1  UNL1        0.0000
   7765 H          45.5098    3.4986   15.9678 H       1  UNL1        0.0000
   7766 H          51.9897   -9.5521   16.7681 H      68  UNL68       0.0000
   7767 H          48.2087   -1.6024   15.6781 H       1  UNL1        0.0000
   7768 H          43.5242   -8.5963   24.0834 H       1  UNL1        0.0000
   7769 H          50.7279   -8.7642   23.1328 H       1  UNL1        0.0000
   7770 H          49.2467   -9.2332   23.8801 H       1  UNL1        0.0000
   7771 H          51.3020   -4.3305   22.0339 H       1  UNL1        0.0000
   7772 H          50.7323   -3.9719   20.4153 H       1  UNL1        0.0000
   7773 H          50.2390  -13.7190   22.9427 H       1  UNL1        0.0000
   7774 H          48.9599  -12.6184   23.4001 H       1  UNL1        0.0000
   7775 C          51.9167   -4.3685   18.1084 C.2     1  UNL1        0.0000
   7776 C          39.5477   -6.2471   21.7627 C.3     1  UNL1        0.0000
   7777 C          47.1854  -11.4554   21.8650 C.3     1  UNL1        0.0000
   7778 C          44.1800    0.6880   17.9761 C.3     1  UNL1        0.0000
   7779 C          52.8128   -4.9728   19.1036 C.2     1  UNL1        0.0000
   7780 C          38.6158   -5.6221   20.7856 C.ar    1  UNL1        0.0000
   7781 C          48.1256  -12.0697   20.9178 C.2     1  UNL1        0.0000
   7782 C          43.2902    1.3348   18.9759 C.ar    1  UNL1        0.0000
   7783 C          52.5640   -4.8979   20.5100 C.3     1  UNL1        0.0000
   7784 C          38.8322   -5.7420   19.3976 C.ar    1  UNL1        0.0000
   7785 C          49.2551  -12.8300   21.3709 C.2     1  UNL1        0.0000
   7786 C          42.1954    2.1077   18.5309 C.ar    1  UNL1        0.0000
   7787 C          43.5447    1.1640   20.3307 C.ar    1  UNL1        0.0000
   7788 C          47.8779  -11.9376   19.5339 C.3     1  UNL1        0.0000
   7789 C          53.9464   -5.6718   18.6279 C.3     1  UNL1        0.0000
   7790 C          37.5156   -4.9297   21.2843 C.ar    1  UNL1        0.0000
   7791 C          52.1285   -7.4542   13.4215 C.2     1  UNL1        0.0000
   7792 C          45.6588    4.3373   13.4465 C.ar    1  UNL1        0.0000
   7793 C          54.6129   -1.6911   13.2955 C.2     1  UNL1        0.0000
   7794 C          41.2546   -0.1487   13.2761 C.ar    1  UNL1        0.0000
   7795 C          46.8628   -3.6257   18.9813 C.3     1  UNL1        0.0000
   7796 C          42.1067  -10.7201   20.8994 C.2     1  UNL1        0.0000
   7797 C          51.9927   -5.9994   13.3983 C.2     1  UNL1        0.0000
   7798 C          45.5660    2.9038   13.4090 C.3     1  UNL1        0.0000
   7799 C          53.3151   -2.3080   13.3424 C.2     1  UNL1        0.0000
   7800 C          42.6569    0.2657   13.3006 C.3     1  UNL1        0.0000
   7801 C          52.1679   -8.1234   14.6512 C.3     1  UNL1        0.0000
   7802 C          41.0210   -2.0230   25.3042 C.ar    1  UNL1        0.0000
   7803 C          55.2682   -1.4163   14.5294 C.3     1  UNL1        0.0000
   7804 C          35.9868   -7.4445   25.1426 C.ar    1  UNL1        0.0000
   7805 C          50.6726   -8.4888   25.1571 C.3     1  UNL1        0.0000
   7806 C          40.5574   -0.3791   14.4886 C.ar    1  UNL1        0.0000
   7807 C          47.5104  -15.2607   25.3062 C.3     1  UNL1        0.0000
   7808 C          45.6726    5.0885   14.6758 C.ar    1  UNL1        0.0000
   7809 N          45.7276    4.4897   15.9139 N.pl3   1  UNL1        0.0000
   7810 N          50.0936   -8.6717   23.9181 N.3     1  UNL1        0.0000
   7811 N          51.4831   -4.2517   21.0413 N.3     1  UNL1        0.0000
   7812 N          49.5861  -12.9883   22.6883 N.pl3   1  UNL1        0.0000
   7813 O          50.7404   -3.9634   18.4742 O.2     1  UNL1        0.0000
   7814 O          40.3167   -7.1979   21.3644 O.3     1  UNL1        0.0000
   7815 O          47.5669  -11.3309   23.0861 O.3     1  UNL1        0.0000
   7816 O          44.1141    1.1176   16.7765 O.3     1  UNL1        0.0000
   7817 O          44.9504   -0.2692   18.3625 O.3     1  UNL1        0.0000
   7818 O          46.0150  -11.0869   21.4595 O.3     1  UNL1        0.0000
   7819 O          52.3286   -4.2877   16.8967 O.2     1  UNL1        0.0000
   7820 O          39.5057   -5.8108   22.9624 O.3     1  UNL1        0.0000
   7821 O          49.6561   -4.5426   15.8977 O.3     1  UNL1        0.0000
   7822 O          42.0099   -6.6840   23.4628 O.3     1  UNL1        0.0000
   7823 O          50.5949   -2.2553   16.3477 O.3     1  UNL1        0.0000
   7824 O          40.2577   -8.4087   23.9554 O.3     1  UNL1        0.0000
   7825 O          44.8642  -11.6166   24.0501 O.3     1  UNL1        0.0000
   7826 O          46.6327    0.2788   16.2782 O.3     1  UNL1        0.0000
   7827 O          45.8182   -9.3551   23.5860 O.3     1  UNL1        0.0000
   7828 O          44.9264   -1.4783   15.7608 O.3     1  UNL1        0.0000
   7829 O          47.2354  -12.4709   25.3522 O.2     1  UNL1        0.0000
   7830 O          45.4829    2.2024   14.5042 O.3     1  UNL1        0.0000
   7831 O          48.0376   -9.6827   25.3471 O.2     1  UNL1        0.0000
   7832 O          43.2470    0.3667   14.4441 O.3     1  UNL1        0.0000
   7833 O          52.7758   -2.6081   14.4903 O.2     1  UNL1        0.0000
   7834 O          38.6214   -6.5685   25.2782 O.3     1  UNL1        0.0000
   7835 O          51.9802   -5.3625   14.5197 O.2     1  UNL1        0.0000
   7836 O          40.8896   -4.7862   25.3594 O.3     1  UNL1        0.0000
   7837 O          47.8479   -2.1512   16.3987 O.3     1  UNL1        0.0000
   7838 O          43.1460   -9.1550   23.3798 O.3     1  UNL1        0.0000
   7839 O          50.3020   -3.3763   13.4659 O.3     1  UNL1        0.0000
   7840 O          45.7344   -0.2742   13.2992 O.3     1  UNL1        0.0000
   7841 H          46.9729   -7.3505   21.7863 H       1  UNL1        0.0000
   7842 H          43.0512  -13.1297   20.1387 H       1  UNL1        0.0000
   7843 H          47.7311    1.5643   19.0112 H      49  UNL49       0.0000
   7844 H          48.0810   -5.6107   20.3556 H       1  UNL1        0.0000
   7845 H          43.1373   -5.5683   20.9732 H       1  UNL1        0.0000
   7846 H          39.5533  -10.6283   20.0371 H       1  UNL1        0.0000
   7847 H          44.5097   -7.3352   22.0420 H       1  UNL1        0.0000
   7848 H          44.2514   -3.8087   19.5771 H       1  UNL1        0.0000
   7849 H          48.8348   -0.6117   18.5709 H      49  UNL49       0.0000
   7850 H          35.2413   -0.3784   19.0132 H       1  UNL1        0.0000
   7851 C          46.2281   -4.6168   19.8780 C.ar    1  UNL1        0.0000
   7852 C          44.9934   -6.5701   21.4369 C.ar    1  UNL1        0.0000
   7853 C          49.4059    0.2018   19.0186 C.2    49  UNL49       0.0000
   7854 C          41.3745  -11.7748   20.1540 C.2     1  UNL1        0.0000
   7855 C          44.8320   -4.5913   20.0599 C.ar    1  UNL1        0.0000
   7856 C          46.3838   -6.5848   21.2848 C.ar    1  UNL1        0.0000
   7857 C          48.7799    1.4283   19.2696 C.2    49  UNL49       0.0000
   7858 C          42.0033  -13.0024   19.8762 C.3     1  UNL1        0.0000
   7859 C          50.7591    0.0155   19.3229 C.3    49  UNL49       0.0000
   7860 C          40.0211  -11.5858   19.8189 C.3     1  UNL1        0.0000
   7861 C          47.0029   -5.6127   20.4988 C.ar    1  UNL1        0.0000
   7862 C          44.2169   -5.5740   20.8329 C.ar    1  UNL1        0.0000
   7863 O          48.1052   -3.7622   18.6777 O.3     1  UNL1        0.0000
   7864 O          41.4838   -9.6410   21.2109 O.2     1  UNL1        0.0000
   7865 O          43.3082  -10.9606   21.2809 O.2     1  UNL1        0.0000
   7866 O          46.1379   -2.6824   18.5000 O.3     1  UNL1        0.0000
   7867 N          49.1749    1.6632   38.5017 N.pl3  49  UNL49       0.0000
   7868 N          49.6380    0.9310   40.5056 N.pl3  49  UNL49       0.0000
   7869 C          49.7951    0.4331   38.3519 C.2    49  UNL49       0.0000
   7870 C          50.0857   -0.0251   39.6096 C.2    49  UNL49       0.0000
   7871 C          50.9526    1.9822   42.3479 C.3    49  UNL49       0.0000
   7872 C          48.8001    2.5778   37.4161 C.3    49  UNL49       0.0000
   7873 C          49.0945    1.9457   39.8113 C.3    49  UNL49       0.0000
   7874 C          49.8916    0.9544   41.9627 C.3    49  UNL49       0.0000
   7875 H          50.0517    0.0274   37.3831 H      49  UNL49       0.0000
   7876 H          50.5862   -0.9269   39.9361 H      49  UNL49       0.0000
   7877 H          51.9140    1.7583   41.8728 H      49  UNL49       0.0000
   7878 H          49.6793    2.7236   36.7794 H      49  UNL49       0.0000
   7879 H          50.6628    2.9946   42.0409 H      49  UNL49       0.0000
   7880 H          47.9799    2.1345   36.8463 H      49  UNL49       0.0000
   7881 H          51.0767    1.9696   43.4382 H      49  UNL49       0.0000
   7882 H          50.2109   -0.0597   42.2355 H      49  UNL49       0.0000
   7883 H          48.5063    3.5315   37.8611 H      49  UNL49       0.0000
   7884 H          48.7226    2.8722   40.2249 H      49  UNL49       0.0000
   7885 H          48.9299    1.1456   42.4518 H      49  UNL49       0.0000
   7886 N          51.9844    4.6959   38.0551 N.3    49  UNL49       0.0000
   7887 C          51.8706    6.0770   40.4667 C.3    49  UNL49       0.0000
   7888 C          54.1745    3.1902   38.2430 C.3    49  UNL49       0.0000
   7889 O          50.6382    6.7663   38.2280 O.2    49  UNL49       0.0000
   7890 O          49.8295    4.7533   39.4945 O.2    49  UNL49       0.0000
   7891 O          52.0098    2.4089   36.9869 O.2    49  UNL49       0.0000
   7892 O          51.9674    2.5151   39.4955 O.2    49  UNL49       0.0000
   7893 F          52.9014    6.9004   40.1598 F      49  UNL49       0.0000
   7894 F          54.6318    3.9776   39.2437 F      49  UNL49       0.0000
   7895 F          52.3772    5.0130   41.1458 F      49  UNL49       0.0000
   7896 F          51.0101    6.7410   41.2928 F      49  UNL49       0.0000
   7897 F          54.6624    3.6506   37.0549 F      49  UNL49       0.0000
   7898 F          54.6619    1.9355   38.4301 F      49  UNL49       0.0000
   7899 S          50.9369    5.5302   38.9332 S.O2   49  UNL49       0.0000
   7900 S          52.3130    3.1338   38.2192 S.O2   49  UNL49       0.0000
   7901 TI         35.8736  -13.5749   37.7043 Ti      1  UNL1        0.0000
   7902 TI         46.7041  -10.6937   28.3395 Ti      1  UNL1        0.0000
   7903 TI         39.9703  -17.5111   35.8843 Ti      1  UNL1        0.0000
   7904 TI         41.4815   -8.3490   30.1113 Ti      1  UNL1        0.0000
   7905 TI         40.4829   -6.6707   28.2069 Ti      1  UNL1        0.0000
   7906 TI         41.8585  -17.7654   37.8377 Ti      1  UNL1        0.0000
   7907 TI         36.8228  -15.3108   35.8128 Ti      1  UNL1        0.0000
   7908 TI         44.7162  -10.3911   30.1870 Ti      1  UNL1        0.0000
   7909 H          36.3755   -9.6778   37.4849 H       1  UNL1        0.0000
   7910 H          47.5128  -14.5997   28.6602 H       1  UNL1        0.0000
   7911 H          31.9137  -14.3315   37.3219 H       1  UNL1        0.0000
   7912 H          50.0862   -8.6894   28.5402 H       1  UNL1        0.0000
   7913 H          42.8341  -21.8000   37.4518 H       1  UNL1        0.0000
   7914 H          36.4244   -7.2606   28.5290 H       1  UNL1        0.0000
   7915 H          40.9773   -8.3075   26.3338 H       1  UNL1        0.0000
   7916 H          44.8285  -10.9364   26.6396 H       1  UNL1        0.0000
   7917 H          42.3684  -18.4326   32.3266 H       1  UNL1        0.0000
   7918 H          39.7580   -6.5119   33.7303 H       1  UNL1        0.0000
   7919 H          32.7502  -11.9222   35.4569 H       1  UNL1        0.0000
   7920 H          49.4588  -12.7780   30.6455 H       1  UNL1        0.0000
   7921 H          35.0513  -13.3696   32.1231 H       1  UNL1        0.0000
   7922 H          37.3828   -4.8428   30.5602 H       1  UNL1        0.0000
   7923 H          40.8751   -3.5678   29.0624 H       1  UNL1        0.0000
   7924 H          47.3550  -16.6186   29.8627 H      69  UNL69       0.0000
   7925 H          43.5741   -8.6688   28.7727 H       1  UNL1        0.0000
   7926 H          38.8896  -15.6627   37.1780 H       1  UNL1        0.0000
   7927 H          46.0932  -15.8306   36.2274 H       1  UNL1        0.0000
   7928 H          44.6121  -16.2997   36.9747 H       1  UNL1        0.0000
   7929 H          46.6673  -11.3970   35.1285 H       1  UNL1        0.0000
   7930 H          46.0976  -11.0384   33.5099 H       1  UNL1        0.0000
   7931 H          45.6044  -20.7854   36.0373 H       1  UNL1        0.0000
   7932 H          44.3253  -19.6848   36.4947 H       1  UNL1        0.0000
   7933 C          47.2821  -11.4349   31.2030 C.2     1  UNL1        0.0000
   7934 C          34.9130  -13.3135   34.8573 C.3     1  UNL1        0.0000
   7935 C          42.5508  -18.5218   34.9596 C.3     1  UNL1        0.0000
   7936 C          39.5453   -6.3785   31.0707 C.3     1  UNL1        0.0000
   7937 C          48.1781  -12.0392   32.1982 C.2     1  UNL1        0.0000
   7938 C          33.9811  -12.6885   33.8802 C.ar    1  UNL1        0.0000
   7939 C          43.4910  -19.1362   34.0124 C.2     1  UNL1        0.0000
   7940 C          38.6555   -5.7317   32.0705 C.ar    1  UNL1        0.0000
   7941 C          47.9294  -11.9643   33.6047 C.3     1  UNL1        0.0000
   7942 C          34.1975  -12.8085   32.4922 C.ar    1  UNL1        0.0000
   7943 C          44.6204  -19.8965   34.4655 C.2     1  UNL1        0.0000
   7944 C          37.5608   -4.9587   31.6255 C.ar    1  UNL1        0.0000
   7945 C          38.9100   -5.9024   33.4253 C.ar    1  UNL1        0.0000
   7946 C          43.2433  -19.0040   32.6285 C.3     1  UNL1        0.0000
   7947 C          49.3118  -12.7382   31.7225 C.3     1  UNL1        0.0000
   7948 C          32.8810  -11.9961   34.3789 C.ar    1  UNL1        0.0000
   7949 C          47.4939  -14.5207   26.5161 C.2     1  UNL1        0.0000
   7950 C          41.0241   -2.7291   26.5411 C.ar    1  UNL1        0.0000
   7951 C          49.9783   -8.7576   26.3901 C.2     1  UNL1        0.0000
   7952 C          36.6200   -7.2151   26.3707 C.ar    1  UNL1        0.0000
   7953 C          42.2282  -10.6921   32.0759 C.3     1  UNL1        0.0000
   7954 C          37.4721  -17.7865   33.9940 C.2     1  UNL1        0.0000
   7955 C          47.3580  -13.0658   26.4929 C.2     1  UNL1        0.0000
   7956 C          40.9314   -4.1626   26.5036 C.3     1  UNL1        0.0000
   7957 C          48.6805   -9.3744   26.4370 C.2     1  UNL1        0.0000
   7958 C          38.0223   -6.8008   26.3952 C.3     1  UNL1        0.0000
   7959 C          47.5332  -15.1898   27.7458 C.3     1  UNL1        0.0000
   7960 C          36.3864   -9.0894   38.3988 C.ar    1  UNL1        0.0000
   7961 C          50.6336   -8.4828   27.6241 C.3     1  UNL1        0.0000
   7962 C          31.3522  -14.5109   38.2372 C.ar    1  UNL1        0.0000
   7963 C          46.0380  -15.5553   38.2517 C.3     1  UNL1        0.0000
   7964 C          35.9228   -7.4455   27.5832 C.ar    1  UNL1        0.0000
   7965 C          42.8757  -22.3271   38.4008 C.3     1  UNL1        0.0000
   7966 C          41.0379   -1.9779   27.7704 C.ar    1  UNL1        0.0000
   7967 N          41.0930   -2.5767   29.0086 N.pl3   1  UNL1        0.0000
   7968 N          45.4589  -15.7381   37.0128 N.3     1  UNL1        0.0000
   7969 N          46.8485  -11.3181   34.1359 N.3     1  UNL1        0.0000
   7970 N          44.9514  -20.0547   35.7829 N.pl3   1  UNL1        0.0000
   7971 O          46.1058  -11.0298   31.5688 O.2     1  UNL1        0.0000
   7972 O          35.6820  -14.2644   34.4590 O.3     1  UNL1        0.0000
   7973 O          42.9322  -18.3973   36.1807 O.3     1  UNL1        0.0000
   7974 O          39.4795   -5.9488   29.8711 O.3     1  UNL1        0.0000
   7975 O          40.3158   -7.3357   31.4571 O.3     1  UNL1        0.0000
   7976 O          41.3803  -18.1534   34.5541 O.3     1  UNL1        0.0000
   7977 O          47.6940  -11.3542   29.9913 O.2     1  UNL1        0.0000
   7978 O          34.8710  -12.8773   36.0570 O.3     1  UNL1        0.0000
   7979 O          45.0215  -11.6090   28.9923 O.3     1  UNL1        0.0000
   7980 O          37.3752  -13.7504   36.5574 O.3     1  UNL1        0.0000
   7981 O          45.9603   -9.3218   29.4423 O.3     1  UNL1        0.0000
   7982 O          35.6231  -15.4751   37.0500 O.3     1  UNL1        0.0000
   7983 O          40.2296  -18.6831   37.1448 O.3     1  UNL1        0.0000
   7984 O          41.9980   -6.7877   29.3728 O.3     1  UNL1        0.0000
   7985 O          41.1835  -16.4216   36.6806 O.3     1  UNL1        0.0000
   7986 O          40.2918   -8.5448   28.8554 O.3     1  UNL1        0.0000
   7987 O          42.6008  -19.5373   38.4468 O.2     1  UNL1        0.0000
   7988 O          40.8483   -4.8640   27.5988 O.3     1  UNL1        0.0000
   7989 O          43.4029  -16.7491   38.4417 O.2     1  UNL1        0.0000
   7990 O          38.6123   -6.6998   27.5387 O.3     1  UNL1        0.0000
   7991 O          48.1411   -9.6746   27.5849 O.2     1  UNL1        0.0000
   7992 O          33.9868  -13.6350   38.3728 O.3     1  UNL1        0.0000
   7993 O          47.3456  -12.4289   27.6144 O.2     1  UNL1        0.0000
   7994 O          36.2550  -11.8526   38.4540 O.3     1  UNL1        0.0000
   7995 O          43.2133   -9.2176   29.4934 O.3     1  UNL1        0.0000
   7996 O          38.5113  -16.2214   36.4744 O.3     1  UNL1        0.0000
   7997 O          45.6674  -10.4427   26.5606 O.3     1  UNL1        0.0000
   7998 O          41.0997   -7.3407   26.3938 O.3     1  UNL1        0.0000
   7999 H          42.3382  -14.4169   34.8809 H       1  UNL1        0.0000
   8000 H          38.4166  -20.1961   33.2334 H       1  UNL1        0.0000
   8001 H          43.0964   -5.5022   32.1058 H      49  UNL49       0.0000
   8002 H          43.4464  -12.6771   33.4502 H       1  UNL1        0.0000
   8003 H          38.5026  -12.6347   34.0678 H       1  UNL1        0.0000
   8004 H          34.9186  -17.6947   33.1317 H       1  UNL1        0.0000
   8005 H          39.8751  -14.4016   35.1366 H       1  UNL1        0.0000
   8006 H          39.6167  -10.8752   32.6717 H       1  UNL1        0.0000
   8007 H          44.2002   -7.6782   31.6655 H      49  UNL49       0.0000
   8008 H          30.6067   -7.4448   32.1078 H       1  UNL1        0.0000
   8009 C          41.5935  -11.6833   32.9727 C.ar    1  UNL1        0.0000
   8010 C          40.3588  -13.6365   34.5315 C.ar    1  UNL1        0.0000
   8011 C          44.7713   -6.8647   32.1133 C.2    49  UNL49       0.0000
   8012 C          36.7399  -18.8412   33.2486 C.2     1  UNL1        0.0000
   8013 C          40.1974  -11.6577   33.1545 C.ar    1  UNL1        0.0000
   8014 C          41.7492  -13.6512   34.3794 C.ar    1  UNL1        0.0000
   8015 C          44.1452   -5.6382   32.3642 C.2    49  UNL49       0.0000
   8016 C          37.3686  -20.0688   32.9708 C.3     1  UNL1        0.0000
   8017 C          46.1245   -7.0509   32.4175 C.3    49  UNL49       0.0000
   8018 C          35.3864  -18.6522   32.9135 C.3     1  UNL1        0.0000
   8019 C          42.3683  -12.6792   33.5934 C.ar    1  UNL1        0.0000
   8020 C          39.5822  -12.6404   33.9275 C.ar    1  UNL1        0.0000
   8021 O          43.4706  -10.8287   31.7723 O.3     1  UNL1        0.0000
   8022 O          36.8492  -16.7074   34.3055 O.2     1  UNL1        0.0000
   8023 O          38.6735  -18.0271   34.3755 O.2     1  UNL1        0.0000
   8024 O          41.5033   -9.7489   31.5946 O.3     1  UNL1        0.0000
   8025 N          44.5402   -5.4032   51.5963 N.pl3  49  UNL49       0.0000
   8026 N          45.0033   -6.1354   53.6002 N.pl3  49  UNL49       0.0000
   8027 C          45.1605   -6.6334   51.4466 C.2    49  UNL49       0.0000
   8028 C          45.4510   -7.0915   52.7042 C.2    49  UNL49       0.0000
   8029 C          46.3180   -5.0843   55.4425 C.3    49  UNL49       0.0000
   8030 C          44.1655   -4.4886   50.5107 C.3    49  UNL49       0.0000
   8031 C          44.4598   -5.1207   52.9059 C.3    49  UNL49       0.0000
   8032 C          45.2569   -6.1120   55.0573 C.3    49  UNL49       0.0000
   8033 H          45.4170   -7.0390   50.4777 H      49  UNL49       0.0000
   8034 H          45.9515   -7.9934   53.0307 H      49  UNL49       0.0000
   8035 H          47.2793   -5.3081   54.9674 H      49  UNL49       0.0000
   8036 H          45.0446   -4.3429   49.8740 H      49  UNL49       0.0000
   8037 H          46.0281   -4.0718   55.1355 H      49  UNL49       0.0000
   8038 H          43.3453   -4.9320   49.9409 H      49  UNL49       0.0000
   8039 H          46.4421   -5.0968   56.5328 H      49  UNL49       0.0000
   8040 H          45.5763   -7.1261   55.3301 H      49  UNL49       0.0000
   8041 H          43.8716   -3.5350   50.9557 H      49  UNL49       0.0000
   8042 H          44.0880   -4.1943   53.3195 H      49  UNL49       0.0000
   8043 H          44.2952   -5.9209   55.5464 H      49  UNL49       0.0000
   8044 N          47.3497   -2.3705   51.1497 N.3    49  UNL49       0.0000
   8045 C          47.2360   -0.9894   53.5613 C.3    49  UNL49       0.0000
   8046 C          49.5399   -3.8762   51.3376 C.3    49  UNL49       0.0000
   8047 O          46.0036   -0.3001   51.3226 O.2    49  UNL49       0.0000
   8048 O          45.1948   -2.3131   52.5891 O.2    49  UNL49       0.0000
   8049 O          47.3752   -4.6576   50.0815 O.2    49  UNL49       0.0000
   8050 O          47.3328   -4.5514   52.5901 O.2    49  UNL49       0.0000
   8051 F          48.2668   -0.1660   53.2544 F      49  UNL49       0.0000
   8052 F          49.9972   -3.0888   52.3383 F      49  UNL49       0.0000
   8053 F          47.7425   -2.0534   54.2404 F      49  UNL49       0.0000
   8054 F          46.3755   -0.3254   54.3874 F      49  UNL49       0.0000
   8055 F          50.0277   -3.4159   50.1495 F      49  UNL49       0.0000
   8056 F          50.0272   -5.1309   51.5247 F      49  UNL49       0.0000
   8057 S          46.3023   -1.5362   52.0278 S.O2   49  UNL49       0.0000
   8058 S          47.6783   -3.9327   51.3138 S.O2   49  UNL49       0.0000
   8059 TI         31.2389  -20.6413   50.7989 Ti      1  UNL1        0.0000
   8060 TI         42.0694  -17.7601   41.4341 Ti      1  UNL1        0.0000
   8061 TI         35.3356  -24.5775   48.9789 Ti      1  UNL1        0.0000
   8062 TI         36.8468  -15.4154   43.2059 Ti      1  UNL1        0.0000
   8063 TI         35.8482  -13.7371   41.3015 Ti      1  UNL1        0.0000
   8064 TI         37.2238  -24.8319   50.9323 Ti      1  UNL1        0.0000
   8065 TI         32.1881  -22.3772   48.9075 Ti      1  UNL1        0.0000
   8066 TI         40.0816  -17.4576   43.2816 Ti      1  UNL1        0.0000
   8067 H          31.7408  -16.7443   50.5795 H      49  UNL49       0.0000
   8068 H          42.8782  -21.6662   41.7548 H       1  UNL1        0.0000
   8069 H          27.2790  -21.3980   50.4165 H      49  UNL49       0.0000
   8070 H          45.4516  -15.7558   41.6348 H       1  UNL1        0.0000
   8071 H          38.1994  -28.8664   50.5464 H      49  UNL49       0.0000
   8072 H          31.7897  -14.3270   41.6236 H       1  UNL1        0.0000
   8073 H          36.3427  -15.3739   39.4284 H       1  UNL1        0.0000
   8074 H          40.1939  -18.0028   39.7342 H       1  UNL1        0.0000
   8075 H          37.7337  -25.4990   45.4212 H       1  UNL1        0.0000
   8076 H          35.1234  -13.5784   46.8249 H       1  UNL1        0.0000
   8077 H          28.1155  -18.9886   48.5515 H       1  UNL1        0.0000
   8078 H          44.8242  -19.8445   43.7401 H       1  UNL1        0.0000
   8079 H          30.4166  -20.4360   45.2177 H       1  UNL1        0.0000
   8080 H          32.7482  -11.9092   43.6548 H       1  UNL1        0.0000
   8081 H          36.2405  -10.6343   42.1570 H       1  UNL1        0.0000
   8082 H          42.7204  -23.6850   42.9573 H      70  UNL70       0.0000
   8083 H          38.9394  -15.7353   41.8673 H       1  UNL1        0.0000
   8084 H          34.2549  -22.7291   50.2726 H       1  UNL1        0.0000
   8085 H          41.4586  -22.8970   49.3220 H      49  UNL49       0.0000
   8086 H          39.9774  -23.3661   50.0693 H      49  UNL49       0.0000
   8087 H          42.0327  -18.4634   48.2231 H       1  UNL1        0.0000
   8088 H          41.4630  -18.1048   46.6045 H       1  UNL1        0.0000
   8089 H          40.9698  -27.8519   49.1320 H       1  UNL1        0.0000
   8090 H          39.6906  -26.7513   49.5893 H       1  UNL1        0.0000
   8091 C          42.6474  -18.5014   44.2976 C.2     1  UNL1        0.0000
   8092 C          30.2784  -20.3800   47.9519 C.3     1  UNL1        0.0000
   8093 C          37.9161  -25.5882   48.0542 C.3     1  UNL1        0.0000
   8094 C          34.9107  -13.4449   44.1653 C.3     1  UNL1        0.0000
   8095 C          43.5435  -19.1057   45.2928 C.2     1  UNL1        0.0000
   8096 C          29.3465  -19.7549   46.9749 C.ar    1  UNL1        0.0000
   8097 C          38.8563  -26.2026   47.1070 C.2     1  UNL1        0.0000
   8098 C          34.0209  -12.7981   45.1651 C.ar    1  UNL1        0.0000
   8099 C          43.2947  -19.0308   46.6993 C.3     1  UNL1        0.0000
   8100 C          29.5629  -19.8749   45.5868 C.ar    1  UNL1        0.0000
   8101 C          39.9858  -26.9629   47.5601 C.2     1  UNL1        0.0000
   8102 C          32.9262  -12.0251   44.7201 C.ar    1  UNL1        0.0000
   8103 C          34.2754  -12.9689   46.5200 C.ar    1  UNL1        0.0000
   8104 C          38.6086  -26.0705   45.7231 C.3     1  UNL1        0.0000
   8105 C          44.6771  -19.8047   44.8171 C.3     1  UNL1        0.0000
   8106 C          28.2463  -19.0625   47.4735 C.ar    1  UNL1        0.0000
   8107 C          42.8592  -21.5871   39.6107 C.2     1  UNL1        0.0000
   8108 C          36.3895   -9.7955   39.6357 C.ar    1  UNL1        0.0000
   8109 C          45.3437  -15.8240   39.4847 C.2     1  UNL1        0.0000
   8110 C          31.9853  -14.2816   39.4653 C.ar    1  UNL1        0.0000
   8111 C          37.5935  -17.7586   45.1705 C.3     1  UNL1        0.0000
   8112 C          32.8374  -24.8530   47.0886 C.2     1  UNL1        0.0000
   8113 C          42.7234  -20.1323   39.5875 C.2     1  UNL1        0.0000
   8114 C          36.2967  -11.2290   39.5982 C.3     1  UNL1        0.0000
   8115 C          44.0458  -16.4408   39.5316 C.2     1  UNL1        0.0000
   8116 C          33.3876  -13.8672   39.4898 C.3     1  UNL1        0.0000
   8117 C          42.8986  -22.2562   40.8404 C.3     1  UNL1        0.0000
   8118 C          31.7517  -16.1559   51.4934 C.2    49  UNL49       0.0000
   8119 C          45.9990  -15.5492   40.7187 C.3     1  UNL1        0.0000
   8120 C          26.7175  -21.5773   51.3318 C.2    49  UNL49       0.0000
   8121 C          41.4033  -22.6217   51.3463 C.3    49  UNL49       0.0000
   8122 C          31.2881  -14.5120   40.6778 C.ar    1  UNL1        0.0000
   8123 C          38.2411  -29.3936   51.4954 C.3    71  UNL71       0.0000
   8124 C          36.4033   -9.0443   40.8650 C.ar    1  UNL1        0.0000
   8125 N          36.4583   -9.6432   42.1032 N.pl3   1  UNL1        0.0000
   8126 N          40.8243  -22.8046   50.1074 N.3    49  UNL49       0.0000
   8127 N          42.2138  -18.3845   47.2306 N.3     1  UNL1        0.0000
   8128 N          40.3168  -27.1211   48.8775 N.pl3   1  UNL1        0.0000
   8129 O          41.4711  -18.0963   44.6634 O.2     1  UNL1        0.0000
   8130 O          31.0474  -21.3308   47.5536 O.3     1  UNL1        0.0000
   8131 O          38.2976  -25.4638   49.2753 O.3     1  UNL1        0.0000
   8132 O          34.8448  -13.0152   42.9657 O.3     1  UNL1        0.0000
   8133 O          35.6812  -14.4021   44.5517 O.3     1  UNL1        0.0000
   8134 O          36.7457  -25.2198   47.6487 O.3     1  UNL1        0.0000
   8135 O          43.0593  -18.4206   43.0859 O.2     1  UNL1        0.0000
   8136 O          30.2364  -19.9437   49.1516 O.3     1  UNL1        0.0000
   8137 O          40.3868  -18.6755   42.0869 O.3     1  UNL1        0.0000
   8138 O          32.7406  -20.8169   49.6520 O.3     1  UNL1        0.0000
   8139 O          41.3256  -16.3882   42.5369 O.3     1  UNL1        0.0000
   8140 O          30.9884  -22.5416   50.1446 O.3     1  UNL1        0.0000
   8141 O          35.5949  -25.7495   50.2394 O.3     1  UNL1        0.0000
   8142 O          37.3634  -13.8541   42.4674 O.3     1  UNL1        0.0000
   8143 O          36.5489  -23.4880   49.7752 O.3     1  UNL1        0.0000
   8144 O          35.6571  -15.6112   41.9500 O.3     1  UNL1        0.0000
   8145 O          37.9662  -26.6037   51.5414 O.3     1  UNL1        0.0000
   8146 O          36.2136  -11.9305   40.6934 O.3     1  UNL1        0.0000
   8147 O          38.7683  -23.8156   51.5363 O.3     1  UNL1        0.0000
   8148 O          33.9777  -13.7662   40.6334 O.3     1  UNL1        0.0000
   8149 O          43.5065  -16.7410   40.6796 O.2     1  UNL1        0.0000
   8150 O          29.3522  -20.7014   51.4674 O.3     1  UNL1        0.0000
   8151 O          42.7109  -19.4953   40.7090 O.2     1  UNL1        0.0000
   8152 O          31.6203  -18.9191   51.5486 O.3     1  UNL1        0.0000
   8153 O          38.5786  -16.2840   42.5880 O.3     1  UNL1        0.0000
   8154 O          33.8767  -23.2878   49.5690 O.3     1  UNL1        0.0000
   8155 O          41.0327  -17.5092   39.6552 O.3     1  UNL1        0.0000
   8156 O          36.4651  -14.4071   39.4884 O.3     1  UNL1        0.0000
   8157 H          37.7036  -21.4834   47.9755 H       1  UNL1        0.0000
   8158 H          33.7819  -27.2625   46.3280 H       1  UNL1        0.0000
   8159 H          38.4618  -12.5686   45.2004 H      49  UNL49       0.0000
   8160 H          38.8118  -19.7435   46.5449 H       1  UNL1        0.0000
   8161 H          33.8680  -19.7012   47.1624 H       1  UNL1        0.0000
   8162 H          30.2840  -24.7611   46.2263 H       1  UNL1        0.0000
   8163 H          35.2404  -21.4681   48.2312 H       1  UNL1        0.0000
   8164 H          34.9821  -17.9416   45.7663 H       1  UNL1        0.0000
   8165 H          39.5655  -14.7446   44.7601 H      49  UNL49       0.0000
   8166 H          25.9721  -14.5113   45.2025 H       1  UNL1        0.0000
   8167 C          36.9588  -18.7497   46.0673 C.ar    1  UNL1        0.0000
   8168 C          35.7241  -20.7030   47.6261 C.ar    1  UNL1        0.0000
   8169 C          40.1367  -13.9311   45.2079 C.2    49  UNL49       0.0000
   8170 C          32.1052  -25.9076   46.3432 C.2     1  UNL1        0.0000
   8171 C          35.5628  -18.7242   46.2491 C.ar    1  UNL1        0.0000
   8172 C          37.1145  -20.7177   47.4741 C.ar    1  UNL1        0.0000
   8173 C          39.5106  -12.7046   45.4588 C.2    49  UNL49       0.0000
   8174 C          32.7340  -27.1353   46.0654 C.3     1  UNL1        0.0000
   8175 C          41.4898  -14.1174   45.5121 C.3    49  UNL49       0.0000
   8176 C          30.7518  -25.7187   46.0081 C.3     1  UNL1        0.0000
   8177 C          37.7337  -19.7456   46.6880 C.ar    1  UNL1        0.0000
   8178 C          34.9476  -19.7068   47.0221 C.ar    1  UNL1        0.0000
   8179 O          38.8359  -17.8951   44.8670 O.3     1  UNL1        0.0000
   8180 O          32.2145  -23.7738   47.4001 O.2     1  UNL1        0.0000
   8181 O          34.0389  -25.0935   47.4701 O.2     1  UNL1        0.0000
   8182 O          36.8687  -16.8153   44.6893 O.3     1  UNL1        0.0000
   8183 N          39.9056  -12.4697   64.6909 N.pl3  49  UNL49       0.0000
   8184 N          40.3687  -13.2018   66.6948 N.pl3  49  UNL49       0.0000
   8185 C          40.5258  -13.6998   64.5412 C.2    49  UNL49       0.0000
   8186 C          40.8164  -14.1579   65.7988 C.2    49  UNL49       0.0000
   8187 C          41.6833  -12.1507   68.5371 C.3    49  UNL49       0.0000
   8188 C          39.5308  -11.5551   63.6054 C.3    49  UNL49       0.0000
   8189 C          39.8252  -12.1871   66.0006 C.3    49  UNL49       0.0000
   8190 C          40.6223  -13.1784   68.1519 C.3    49  UNL49       0.0000
   8191 H          40.7824  -14.1054   63.5723 H      49  UNL49       0.0000
   8192 H          41.3169  -15.0598   66.1253 H      49  UNL49       0.0000
   8193 H          42.6447  -12.3746   68.0620 H      49  UNL49       0.0000
   8194 H          40.4100  -11.4093   62.9686 H      49  UNL49       0.0000
   8195 H          41.3935  -11.1382   68.2301 H      49  UNL49       0.0000
   8196 H          38.7106  -11.9984   63.0355 H      49  UNL49       0.0000
   8197 H          41.8074  -12.1633   69.6274 H      49  UNL49       0.0000
   8198 H          40.9416  -14.1926   68.4247 H      49  UNL49       0.0000
   8199 H          39.2370  -10.6014   64.0503 H      49  UNL49       0.0000
   8200 H          39.4533  -11.2607   66.4141 H      49  UNL49       0.0000
   8201 H          39.6606  -12.9873   68.6410 H      49  UNL49       0.0000
   8202 N          42.7151   -9.4369   64.2443 N.3    49  UNL49       0.0000
   8203 C          42.6013   -8.0558   66.6559 C.3    49  UNL49       0.0000
   8204 C          44.9052  -10.9426   64.4322 C.3    49  UNL49       0.0000
   8205 O          41.3689   -7.3666   64.4172 O.2    49  UNL49       0.0000
   8206 O          40.5602   -9.3796   65.6837 O.2    49  UNL49       0.0000
   8207 O          42.7405  -11.7240   63.1761 O.2    49  UNL49       0.0000
   8208 O          42.6981  -11.6178   65.6847 O.2    49  UNL49       0.0000
   8209 F          43.6321   -7.2325   66.3490 F      49  UNL49       0.0000
   8210 F          45.3625  -10.1552   65.4329 F      49  UNL49       0.0000
   8211 F          43.1079   -9.1199   67.3350 F      49  UNL49       0.0000
   8212 F          41.7408   -7.3918   67.4820 F      49  UNL49       0.0000
   8213 F          45.3931  -10.4823   63.2441 F      49  UNL49       0.0000
   8214 F          45.3926  -12.1973   64.6193 F      49  UNL49       0.0000
   8215 S          41.6676   -8.6026   65.1225 S.O2   49  UNL49       0.0000
   8216 S          43.0437  -10.9991   64.4084 S.O2   49  UNL49       0.0000
   8217 TI         38.6258   15.1705   11.4586 Ti      1  UNL1        0.0000
   8218 TI         49.4563   18.0517    2.0938 Ti      1  UNL1        0.0000
   8219 TI         42.7225   11.2343    9.6386 Ti      1  UNL1        0.0000
   8220 TI         44.2337   20.3964    3.8656 Ti      1  UNL1        0.0000
   8221 TI         43.2351   22.0747    1.9612 Ti      1  UNL1        0.0000
   8222 TI         44.6107   10.9799   11.5920 Ti      1  UNL1        0.0000
   8223 TI         39.5750   13.4346    9.5671 Ti      1  UNL1        0.0000
   8224 TI         47.4685   18.3542    3.9412 Ti      1  UNL1        0.0000
   8225 H          39.1277   19.0676   11.2391 H       1  UNL1        0.0000
   8226 H          50.2651   14.1456    2.4145 H       1  UNL1        0.0000
   8227 H          34.6659   14.4139   11.0761 H       1  UNL1        0.0000
   8228 H          52.8385   20.0560    2.2944 H       1  UNL1        0.0000
   8229 H          45.5863    6.9454   11.2060 H       1  UNL1        0.0000
   8230 H          39.1766   21.4848    2.2832 H       1  UNL1        0.0000
   8231 H          43.7296   20.4379    0.0881 H       1  UNL1        0.0000
   8232 H          47.5808   17.8090    0.3938 H       1  UNL1        0.0000
   8233 H          45.1206   10.3128    6.0809 H       1  UNL1        0.0000
   8234 H          42.5103   22.2334    7.4845 H       1  UNL1        0.0000
   8235 H          35.5024   16.8232    9.2112 H       1  UNL1        0.0000
   8236 H          52.2111   15.9674    4.3998 H       1  UNL1        0.0000
   8237 H          37.8035   15.3758    5.8774 H       1  UNL1        0.0000
   8238 H          40.1351   23.9026    4.3144 H       1  UNL1        0.0000
   8239 H          43.6274   25.1776    2.8167 H       1  UNL1        0.0000
   8240 H          50.1073   12.1268    3.6169 H       1  UNL1        0.0000
   8241 H          46.3263   20.0765    2.5269 H       1  UNL1        0.0000
   8242 H          41.6418   13.0827   10.9322 H       1  UNL1        0.0000
   8243 H          48.8455   12.9148    9.9816 H       1  UNL1        0.0000
   8244 H          47.3644   12.4457   10.7290 H       1  UNL1        0.0000
   8245 H          49.4196   17.3484    8.8827 H       1  UNL1        0.0000
   8246 H          48.8499   17.7070    7.2642 H       1  UNL1        0.0000
   8247 H          48.3567    7.9600    9.7916 H       1  UNL1        0.0000
   8248 H          47.0775    9.0605   10.2490 H       1  UNL1        0.0000
   8249 C          50.0344   17.3105    4.9573 C.2     1  UNL1        0.0000
   8250 C          37.6653   15.4319    8.6116 C.3     1  UNL1        0.0000
   8251 C          45.3030   10.2236    8.7139 C.3     1  UNL1        0.0000
   8252 C          42.2976   22.3669    4.8249 C.3     1  UNL1        0.0000
   8253 C          50.9304   16.7061    5.9525 C.2     1  UNL1        0.0000
   8254 C          36.7334   16.0569    7.6345 C.ar    1  UNL1        0.0000
   8255 C          46.2432    9.6092    7.7667 C.ar    1  UNL1        0.0000
   8256 C          41.4078   23.0137    5.8247 C.ar    1  UNL1        0.0000
   8257 C          50.6816   16.7811    7.3589 C.3     1  UNL1        0.0000
   8258 C          36.9498   15.9369    6.2465 C.ar    1  UNL1        0.0000
   8259 C          47.3727    8.8489    8.2198 C.ar    1  UNL1        0.0000
   8260 C          40.3131   23.7867    5.3798 C.ar    1  UNL1        0.0000
   8261 C          41.6623   22.8430    7.1796 C.ar    1  UNL1        0.0000
   8262 C          45.9955    9.7414    6.3828 C.ar    1  UNL1        0.0000
   8263 C          52.0641   16.0072    5.4768 C.3     1  UNL1        0.0000
   8264 C          35.6332   16.7493    8.1332 C.ar    1  UNL1        0.0000
   8265 C          50.2461   14.2247    0.2704 C.2     1  UNL1        0.0000
   8266 C          43.7764   26.0163    0.2954 C.2     1  UNL1        0.0000
   8267 C          52.7306   19.9878    0.1444 C.2     1  UNL1        0.0000
   8268 C          39.3722   21.5303    0.1250 C.2     1  UNL1        0.0000
   8269 C          44.9804   18.0532    5.8302 C.3     1  UNL1        0.0000
   8270 C          40.2244   10.9589    7.7483 C.3     1  UNL1        0.0000
   8271 C          50.1103   15.6796    0.2472 C.2     1  UNL1        0.0000
   8272 C          43.6836   24.5828    0.2579 C.2     1  UNL1        0.0000
   8273 C          51.4327   19.3710    0.1912 C.2     1  UNL1        0.0000
   8274 C          40.7745   21.9446    0.1494 C.2     1  UNL1        0.0000
   8275 C          50.2855   13.5556    1.5000 C.2     1  UNL1        0.0000
   8276 C          39.1386   19.6560   12.1530 C.ar    1  UNL1        0.0000
   8277 C          53.3859   20.2626    1.3783 C.3     1  UNL1        0.0000
   8278 C          34.1045   14.2345   11.9915 C.ar    1  UNL1        0.0000
   8279 C          48.7902   13.1901   12.0060 C.3     1  UNL1        0.0000
   8280 C          38.6750   21.2998    1.3374 C.2     1  UNL1        0.0000
   8281 C          45.6280    6.4182   12.1551 C.ar    1  UNL1        0.0000
   8282 C          43.7902   26.7675    1.5247 C.2     1  UNL1        0.0000
   8283 N          43.8452   26.1687    2.7628 N.pl3   1  UNL1        0.0000
   8284 N          48.2112   13.0073   10.7670 N.3     1  UNL1        0.0000
   8285 N          49.6007   17.4273    7.8902 N.3     1  UNL1        0.0000
   8286 N          47.7037    8.6907    9.5372 N.pl3   1  UNL1        0.0000
   8287 O          48.8580   17.7155    5.3231 O.2     1  UNL1        0.0000
   8288 O          38.4343   14.4810    8.2133 O.3     1  UNL1        0.0000
   8289 O          45.6845   10.3481    9.9350 O.3     1  UNL1        0.0000
   8290 O          42.2317   22.7966    3.6253 O.3     1  UNL1        0.0000
   8291 O          43.0681   21.4097    5.2114 O.3     1  UNL1        0.0000
   8292 O          44.1326   10.5920    8.3084 O.3     1  UNL1        0.0000
   8293 O          50.4462   17.3912    3.7456 O.2     1  UNL1        0.0000
   8294 O          37.6233   15.8681    9.8113 O.3     1  UNL1        0.0000
   8295 O          47.7737   17.1363    2.7465 O.3     1  UNL1        0.0000
   8296 O          40.1275   14.9949   10.3116 O.3     1  UNL1        0.0000
   8297 O          48.7125   19.4236    3.1965 O.3     1  UNL1        0.0000
   8298 O          38.3753   13.2703   10.8043 O.3     1  UNL1        0.0000
   8299 O          42.9818   10.0623   10.8990 O.3     1  UNL1        0.0000
   8300 O          44.7503   21.9577    3.1271 O.3     1  UNL1        0.0000
   8301 O          43.9358   12.3238   10.4348 O.3     1  UNL1        0.0000
   8302 O          43.0440   20.2006    2.6097 O.3     1  UNL1        0.0000
   8303 O          45.3531    9.2081   12.2011 O.3     1  UNL1        0.0000
   8304 O          43.6005   23.8813    1.3531 O.2     1  UNL1        0.0000
   8305 O          46.1552   11.9963   12.1960 O.2     1  UNL1        0.0000
   8306 O          41.3646   22.0456    1.2930 O.2     1  UNL1        0.0000
   8307 O          50.8934   19.0708    1.3392 O.2     1  UNL1        0.0000
   8308 O          36.7391   15.1104   12.1270 O.3     1  UNL1        0.0000
   8309 O          50.0978   16.3165    1.3686 O.2     1  UNL1        0.0000
   8310 O          39.0073   16.8928   12.2083 O.3     1  UNL1        0.0000
   8311 O          45.9655   19.5278    3.2476 O.3     1  UNL1        0.0000
   8312 O          41.2636   12.5240   10.2286 O.3     1  UNL1        0.0000
   8313 O          48.4196   18.3027    0.3148 O.3     1  UNL1        0.0000
   8314 O          43.8520   21.4047    0.1481 O.3     1  UNL1        0.0000
   8315 H          45.0905   14.3284    8.6352 H       1  UNL1        0.0000
   8316 H          41.1688    8.5493    6.9876 H       1  UNL1        0.0000
   8317 H          45.8487   23.2432    5.8600 H      49  UNL49       0.0000
   8318 H          46.1987   16.0683    7.2045 H       1  UNL1        0.0000
   8319 H          41.2549   16.1107    7.8221 H       1  UNL1        0.0000
   8320 H          37.6709   11.0507    6.8860 H       1  UNL1        0.0000
   8321 H          42.6273   14.3438    8.8909 H       1  UNL1        0.0000
   8322 H          42.3690   17.8702    6.4260 H       1  UNL1        0.0000
   8323 H          46.9524   21.0672    5.4197 H      49  UNL49       0.0000
   8324 H          33.3590   21.3006    5.8621 H       1  UNL1        0.0000
   8325 C          44.3457   17.0621    6.7269 C.ar    1  UNL1        0.0000
   8326 C          43.1110   15.1088    8.2858 C.ar    1  UNL1        0.0000
   8327 C          47.5236   21.8807    5.8675 C.2    49  UNL49       0.0000
   8328 C          39.4921    9.9042    7.0028 C.ar    1  UNL1        0.0000
   8329 C          42.9497   17.0877    6.9087 C.ar    1  UNL1        0.0000
   8330 C          44.5015   15.0942    8.1337 C.ar    1  UNL1        0.0000
   8331 C          46.8975   23.1072    6.1185 C.2    49  UNL49       0.0000
   8332 C          40.1209    8.6765    6.7250 C.ar    1  UNL1        0.0000
   8333 C          48.8767   21.6944    6.1718 C.3    49  UNL49       0.0000
   8334 C          38.1387   10.0932    6.6678 C.ar    1  UNL1        0.0000
   8335 C          45.1206   16.0662    7.3477 C.ar    1  UNL1        0.0000
   8336 C          42.3345   16.1050    7.6818 C.ar    1  UNL1        0.0000
   8337 O          46.2228   17.9167    5.5266 O.3     1  UNL1        0.0000
   8338 O          39.6014   12.0380    8.0597 O.3     1  UNL1        0.0000
   8339 O          41.4258   10.7183    8.1298 O.3     1  UNL1        0.0000
   8340 O          44.2556   18.9965    5.3489 O.3     1  UNL1        0.0000
   8341 N          47.2925   23.3422   25.3506 N.pl3  49  UNL49       0.0000
   8342 N          47.7556   22.6100   27.3545 N.pl3  49  UNL49       0.0000
   8343 C          47.9127   22.1120   25.2008 C.2    49  UNL49       0.0000
   8344 C          48.2033   21.6539   26.4585 C.2    49  UNL49       0.0000
   8345 C          49.0703   23.6611   29.1968 C.3    49  UNL49       0.0000
   8346 C          46.9178   24.2567   24.2650 C.3    49  UNL49       0.0000
   8347 C          47.2121   23.6247   26.6602 C.3    49  UNL49       0.0000
   8348 C          48.0092   22.6334   28.8116 C.3    49  UNL49       0.0000
   8349 H          48.1693   21.7064   24.2320 H      49  UNL49       0.0000
   8350 H          48.7038   20.7520   26.7850 H      49  UNL49       0.0000
   8351 H          50.0316   23.4373   28.7217 H      49  UNL49       0.0000
   8352 H          47.7969   24.4025   23.6282 H      49  UNL49       0.0000
   8353 H          48.7804   24.6736   28.8898 H      49  UNL49       0.0000
   8354 H          46.0975   23.8134   23.6952 H      49  UNL49       0.0000
   8355 H          49.1943   23.6486   30.2870 H      49  UNL49       0.0000
   8356 H          48.3285   21.6193   29.0843 H      49  UNL49       0.0000
   8357 H          46.6239   25.2104   24.7100 H      49  UNL49       0.0000
   8358 H          46.8402   24.5511   27.0738 H      49  UNL49       0.0000
   8359 H          47.0475   22.8245   29.3007 H      49  UNL49       0.0000
   8360 N          50.1020   26.3749   24.9040 N.3    49  UNL49       0.0000
   8361 C          49.9882   27.7560   27.3156 C.3    49  UNL49       0.0000
   8362 C          52.2921   24.8692   25.0919 C.3    49  UNL49       0.0000
   8363 O          48.7559   28.4453   25.0769 O.2    49  UNL49       0.0000
   8364 O          47.9471   26.4323   26.3434 O.2    49  UNL49       0.0000
   8365 O          50.1274   24.0878   23.8358 O.2    49  UNL49       0.0000
   8366 O          50.0850   24.1940   26.3443 O.2    49  UNL49       0.0000
   8367 F          51.0190   28.5794   27.0087 F      49  UNL49       0.0000
   8368 F          52.7495   25.6566   26.0925 F      49  UNL49       0.0000
   8369 F          50.4948   26.6920   27.9946 F      49  UNL49       0.0000
   8370 F          49.1277   28.4200   28.1416 F      49  UNL49       0.0000
   8371 F          52.7800   25.3295   23.9038 F      49  UNL49       0.0000
   8372 F          52.7795   23.6145   25.2789 F      49  UNL49       0.0000
   8373 S          49.0545   27.2092   25.7821 S.O2   49  UNL49       0.0000
   8374 S          50.4306   24.8127   25.0681 S.O2   49  UNL49       0.0000
   8375 TI         33.9912    8.1040   24.5532 Ti      1  UNL1        0.0000
   8376 TI         44.8217   10.9853   15.1884 Ti      1  UNL1        0.0000
   8377 TI         38.0879    4.1678   22.7332 Ti      1  UNL1        0.0000
   8378 TI         39.5991   13.3300   16.9602 Ti      1  UNL1        0.0000
   8379 TI         38.6005   15.0083   15.0558 Ti      1  UNL1        0.0000
   8380 TI         39.9761    3.9135   24.6866 Ti      1  UNL1        0.0000
   8381 TI         34.9404    6.3681   22.6617 Ti      1  UNL1        0.0000
   8382 TI         42.8339   11.2878   17.0358 Ti      1  UNL1        0.0000
   8383 H          34.4931   12.0011   24.3337 H       1  UNL1        0.0000
   8384 H          45.6305    7.0792   15.5091 H       1  UNL1        0.0000
   8385 H          30.0313    7.3474   24.1707 H       1  UNL1        0.0000
   8386 H          48.2038   12.9896   15.3890 H       1  UNL1        0.0000
   8387 H          40.9517   -0.1210   24.3007 H       1  UNL1        0.0000
   8388 H          34.5420   14.4184   15.3778 H       1  UNL1        0.0000
   8389 H          39.0950   13.3715   13.1827 H       1  UNL1        0.0000
   8390 H          42.9461   10.7426   13.4884 H       1  UNL1        0.0000
   8391 H          40.4860    3.2464   19.1755 H       1  UNL1        0.0000
   8392 H          37.8756   15.1670   20.5791 H       1  UNL1        0.0000
   8393 H          30.8678    9.7568   22.3058 H       1  UNL1        0.0000
   8394 H          47.5764    8.9009   17.4944 H       1  UNL1        0.0000
   8395 H          33.1689    8.3093   18.9720 H       1  UNL1        0.0000
   8396 H          35.5004   16.8361   17.4090 H       1  UNL1        0.0000
   8397 H          38.9927   18.1111   15.9113 H       1  UNL1        0.0000
   8398 H          45.4726    5.0604   16.7116 H       1  UNL1        0.0000
   8399 H          41.6917   13.0101   15.6216 H       1  UNL1        0.0000
   8400 H          37.0072    6.0162   24.0268 H       1  UNL1        0.0000
   8401 H          44.2108    5.8484   23.0762 H       1  UNL1        0.0000
   8402 H          42.7297    5.3793   23.8236 H       1  UNL1        0.0000
   8403 H          44.7850   10.2820   21.9773 H       1  UNL1        0.0000
   8404 H          44.2152   10.6406   20.3588 H       1  UNL1        0.0000
   8405 H          43.7220    0.8935   22.8862 H       1  UNL1        0.0000
   8406 H          42.4429    1.9941   23.3436 H       1  UNL1        0.0000
   8407 C          45.3997   10.2440   18.0519 C.2     1  UNL1        0.0000
   8408 C          33.0307    8.3654   21.7062 C.3     1  UNL1        0.0000
   8409 C          40.6684    3.1571   21.8085 C.3     1  UNL1        0.0000
   8410 C          37.6630   15.3005   17.9195 C.3     1  UNL1        0.0000
   8411 C          46.2957    9.6397   19.0471 C.2     1  UNL1        0.0000
   8412 C          32.0987    8.9904   20.7291 C.ar    1  UNL1        0.0000
   8413 C          41.6086    2.5428   20.8613 C.ar    1  UNL1        0.0000
   8414 C          36.7731   15.9473   18.9193 C.ar    1  UNL1        0.0000
   8415 C          46.0470    9.7146   20.4535 C.3     1  UNL1        0.0000
   8416 C          32.3151    8.8705   19.3411 C.ar    1  UNL1        0.0000
   8417 C          42.7380    1.7825   21.3144 C.ar    1  UNL1        0.0000
   8418 C          35.6784   16.7202   18.4744 C.ar    1  UNL1        0.0000
   8419 C          37.0276   15.7765   20.2742 C.ar    1  UNL1        0.0000
   8420 C          41.3609    2.6749   19.4774 C.ar    1  UNL1        0.0000
   8421 C          47.4294    8.9407   18.5714 C.3     1  UNL1        0.0000
   8422 C          30.9986    9.6829   21.2278 C.ar    1  UNL1        0.0000
   8423 C          45.6115    7.1583   13.3650 C.ar    1  UNL1        0.0000
   8424 C          39.1418   18.9499   13.3900 C.ar    1  UNL1        0.0000
   8425 C          48.0959   12.9214   13.2390 C.2     1  UNL1        0.0000
   8426 C          34.7376   14.4638   13.2196 C.ar    1  UNL1        0.0000
   8427 C          40.3458   10.9868   18.9248 C.3     1  UNL1        0.0000
   8428 C          35.5897    3.8924   20.8429 C.3     1  UNL1        0.0000
   8429 C          45.4756    8.6131   13.3418 C.3     1  UNL1        0.0000
   8430 C          39.0490   17.5163   13.3525 C.3     1  UNL1        0.0000
   8431 C          46.7981   12.3046   13.2858 C.2     1  UNL1        0.0000
   8432 C          36.1399   14.8782   13.2440 C.3     1  UNL1        0.0000
   8433 C          45.6508    6.4892   14.5947 C.ar    1  UNL1        0.0000
   8434 C          34.5040   12.5895   25.2476 C.ar    1  UNL1        0.0000
   8435 C          48.7512   13.1962   14.4729 C.3     1  UNL1        0.0000
   8436 C          29.4698    7.1680   25.0861 C.ar    1  UNL1        0.0000
   8437 C          44.1556    6.1237   25.1006 C.3     1  UNL1        0.0000
   8438 C          34.0404   14.2334   14.4321 C.ar    1  UNL1        0.0000
   8439 C          40.9933   -0.6482   25.2497 C.ar    1  UNL1        0.0000
   8440 C          39.1555   19.7011   14.6193 C.ar    1  UNL1        0.0000
   8441 N          39.2106   19.1022   15.8574 N.pl3   1  UNL1        0.0000
   8442 N          43.5765    5.9408   23.8616 N.3     1  UNL1        0.0000
   8443 N          44.9661   10.3609   20.9848 N.3     1  UNL1        0.0000
   8444 N          43.0690    1.6242   22.6318 N.pl3   1  UNL1        0.0000
   8445 O          44.2234   10.6491   18.4177 O.2     1  UNL1        0.0000
   8446 O          33.7996    7.4146   21.3079 O.3     1  UNL1        0.0000
   8447 O          41.0498    3.2816   23.0296 O.3     1  UNL1        0.0000
   8448 O          37.5971   15.7302   16.7199 O.3     1  UNL1        0.0000
   8449 O          38.4334   14.3433   18.3060 O.3     1  UNL1        0.0000
   8450 O          39.4980    3.5256   21.4030 O.3     1  UNL1        0.0000
   8451 O          45.8116   10.3248   16.8402 O.2     1  UNL1        0.0000
   8452 O          32.9886    8.8017   22.9059 O.3     1  UNL1        0.0000
   8453 O          43.1391   10.0699   15.8412 O.3     1  UNL1        0.0000
   8454 O          35.4929    7.9285   23.4062 O.3     1  UNL1        0.0000
   8455 O          44.0779   12.3572   16.2911 O.3     1  UNL1        0.0000
   8456 O          33.7407    6.2038   23.8989 O.3     1  UNL1        0.0000
   8457 O          38.3472    2.9959   23.9936 O.3     1  UNL1        0.0000
   8458 O          40.1156   14.8913   16.2217 O.3     1  UNL1        0.0000
   8459 O          39.3011    5.2574   23.5295 O.3     1  UNL1        0.0000
   8460 O          38.4094   13.1342   15.7043 O.3     1  UNL1        0.0000
   8461 O          40.7184    2.1416   25.2957 O.3     1  UNL1        0.0000
   8462 O          38.9659   16.8149   14.4477 O.3     1  UNL1        0.0000
   8463 O          41.5206    4.9298   25.2906 O.2     1  UNL1        0.0000
   8464 O          36.7300   14.9792   14.3876 O.3     1  UNL1        0.0000
   8465 O          46.2587   12.0044   14.4338 O.2     1  UNL1        0.0000
   8466 O          32.1044    8.0440   25.2216 O.3     1  UNL1        0.0000
   8467 O          45.4632    9.2501   14.4632 O.3     1  UNL1        0.0000
   8468 O          34.3726    9.8263   25.3029 O.3     1  UNL1        0.0000
   8469 O          41.3309   12.4614   16.3422 O.3     1  UNL1        0.0000
   8470 O          36.6289    5.4575   23.3232 O.3     1  UNL1        0.0000
   8471 O          43.7850   11.2362   13.4094 O.3     1  UNL1        0.0000
   8472 O          39.2173   14.3383   13.2427 O.3     1  UNL1        0.0000
   8473 H          40.4558    7.2620   21.7298 H       1  UNL1        0.0000
   8474 H          36.5342    1.4828   20.0822 H       1  UNL1        0.0000
   8475 H          41.2141   16.1768   18.9546 H      49  UNL49       0.0000
   8476 H          41.5640    9.0019   20.2991 H       1  UNL1        0.0000
   8477 H          36.6202    9.0442   20.9167 H       1  UNL1        0.0000
   8478 H          33.0363    3.9843   19.9806 H       1  UNL1        0.0000
   8479 H          37.9927    7.2773   21.9855 H       1  UNL1        0.0000
   8480 H          37.7344   10.8038   19.5206 H       1  UNL1        0.0000
   8481 H          42.3178   14.0008   18.5143 H      49  UNL49       0.0000
   8482 H          28.7243   14.2341   18.9567 H       1  UNL1        0.0000
   8483 C          39.7111    9.9957   19.8215 C.ar    1  UNL1        0.0000
   8484 C          38.4764    8.0424   21.3804 C.ar    1  UNL1        0.0000
   8485 C          42.8889   14.8143   18.9621 C.2    49  UNL49       0.0000
   8486 C          34.8575    2.8378   20.0975 C.ar    1  UNL1        0.0000
   8487 C          38.3150   10.0212   20.0033 C.ar    1  UNL1        0.0000
   8488 C          39.8668    8.0277   21.2283 C.ar    1  UNL1        0.0000
   8489 C          42.2628   16.0408   19.2131 C.2    49  UNL49       0.0000
   8490 C          35.4862    1.6101   19.8197 C.ar    1  UNL1        0.0000
   8491 C          44.2421   14.6280   19.2664 C.3    49  UNL49       0.0000
   8492 C          33.5040    3.0267   19.7624 C.ar    1  UNL1        0.0000
   8493 C          40.4859    8.9998   20.4423 C.ar    1  UNL1        0.0000
   8494 C          37.6998    9.0385   20.7764 C.ar    1  UNL1        0.0000
   8495 O          41.5882   10.8503   18.6212 O.3     1  UNL1        0.0000
   8496 O          34.9668    4.9715   21.1544 O.3     1  UNL1        0.0000
   8497 O          36.7911    3.6519   21.2244 O.3     1  UNL1        0.0000
   8498 O          39.6209   11.9301   18.4435 O.3     1  UNL1        0.0000
   8499 N          42.6579   16.2757   38.4452 N.pl3  49  UNL49       0.0000
   8500 N          43.1209   15.5435   40.4491 N.pl3  49  UNL49       0.0000
   8501 C          43.2781   15.0456   38.2954 C.2    49  UNL49       0.0000
   8502 C          43.5686   14.5875   39.5531 C.2    49  UNL49       0.0000
   8503 C          44.4356   16.5947   42.2914 C.3    49  UNL49       0.0000
   8504 C          42.2831   17.1903   37.3596 C.3    49  UNL49       0.0000
   8505 C          42.5774   16.5583   39.7548 C.3    49  UNL49       0.0000
   8506 C          43.3746   15.5669   41.9062 C.3    49  UNL49       0.0000
   8507 H          43.5347   14.6399   37.3266 H      49  UNL49       0.0000
   8508 H          44.0692   13.6856   39.8796 H      49  UNL49       0.0000
   8509 H          45.3969   16.3708   41.8163 H      49  UNL49       0.0000
   8510 H          43.1622   17.3361   36.7228 H      49  UNL49       0.0000
   8511 H          44.1458   17.6072   41.9844 H      49  UNL49       0.0000
   8512 H          41.4629   16.7470   36.7898 H      49  UNL49       0.0000
   8513 H          44.5597   16.5821   43.3817 H      49  UNL49       0.0000
   8514 H          43.6939   14.5528   42.1789 H      49  UNL49       0.0000
   8515 H          41.9893   18.1440   37.8046 H      49  UNL49       0.0000
   8516 H          42.2056   17.4847   40.1684 H      49  UNL49       0.0000
   8517 H          42.4129   15.7581   42.3953 H      49  UNL49       0.0000
   8518 N          45.4673   19.3085   37.9986 N.3    49  UNL49       0.0000
   8519 C          45.3536   20.6895   40.4102 C.3    49  UNL49       0.0000
   8520 C          47.6575   17.8027   38.1865 C.3    49  UNL49       0.0000
   8521 O          44.1212   21.3788   38.1715 O.2    49  UNL49       0.0000
   8522 O          43.3124   19.3658   39.4380 O.2    49  UNL49       0.0000
   8523 O          45.4928   17.0214   36.9304 O.2    49  UNL49       0.0000
   8524 O          45.4504   17.1276   39.4389 O.2    49  UNL49       0.0000
   8525 F          46.3844   21.5129   40.1033 F      49  UNL49       0.0000
   8526 F          48.1148   18.5901   39.1871 F      49  UNL49       0.0000
   8527 F          45.8601   19.6255   41.0892 F      49  UNL49       0.0000
   8528 F          44.4931   21.3535   41.2363 F      49  UNL49       0.0000
   8529 F          48.1453   18.2631   36.9984 F      49  UNL49       0.0000
   8530 F          48.1448   16.5480   38.3736 F      49  UNL49       0.0000
   8531 S          44.4199   20.1427   38.8767 S.O2   49  UNL49       0.0000
   8532 S          45.7959   17.7463   38.1627 S.O2   49  UNL49       0.0000
   8533 TI         29.3566    1.0376   37.6478 Ti      1  UNL1        0.0000
   8534 TI         40.1870    3.9188   28.2830 Ti      1  UNL1        0.0000
   8535 TI         33.4532   -2.8986   35.8278 Ti      1  UNL1        0.0000
   8536 TI         34.9644    6.2635   30.0548 Ti      1  UNL1        0.0000
   8537 TI         33.9659    7.9418   28.1504 Ti      1  UNL1        0.0000
   8538 TI         35.3414   -3.1529   37.7812 Ti      1  UNL1        0.0000
   8539 TI         30.3058   -0.6983   35.7563 Ti      1  UNL1        0.0000
   8540 TI         38.1992    4.2214   30.1305 Ti      1  UNL1        0.0000
   8541 H          29.8584    4.9347   37.4284 H       1  UNL1        0.0000
   8542 H          40.9958    0.0128   28.6037 H       1  UNL1        0.0000
   8543 H          25.3967    0.2810   37.2654 H       1  UNL1        0.0000
   8544 H          43.5692    5.9231   28.4836 H       1  UNL1        0.0000
   8545 H          36.3170   -7.1875   37.3953 H       1  UNL1        0.0000
   8546 H          29.9073    7.3519   28.4725 H       1  UNL1        0.0000
   8547 H          34.4603    6.3050   26.2773 H       1  UNL1        0.0000
   8548 H          38.3115    3.6761   26.5831 H       1  UNL1        0.0000
   8549 H          35.8514   -3.8200   32.2701 H       1  UNL1        0.0000
   8550 H          33.2410    8.1006   33.6738 H       1  UNL1        0.0000
   8551 H          26.2331    2.6903   35.4004 H       1  UNL1        0.0000
   8552 H          42.9418    1.8345   30.5890 H       1  UNL1        0.0000
   8553 H          28.5342    1.2429   32.0666 H       1  UNL1        0.0000
   8554 H          30.8658    9.7697   30.5036 H       1  UNL1        0.0000
   8555 H          34.3581   11.0447   29.0059 H       1  UNL1        0.0000
   8556 H          40.8380   -2.0061   29.8062 H       1  UNL1        0.0000
   8557 H          37.0571    5.9437   28.7162 H       1  UNL1        0.0000
   8558 H          32.3725   -1.0502   37.1214 H       1  UNL1        0.0000
   8559 H          39.5762   -1.2181   36.1709 H       1  UNL1        0.0000
   8560 H          38.0951   -1.6871   36.9182 H       1  UNL1        0.0000
   8561 H          40.1503    3.2156   35.0720 H       1  UNL1        0.0000
   8562 H          39.5806    3.5741   33.4534 H       1  UNL1        0.0000
   8563 H          39.0874   -6.1729   35.9808 H       1  UNL1        0.0000
   8564 H          37.8082   -5.0723   36.4382 H       1  UNL1        0.0000
   8565 C          40.7651    3.1776   31.1465 C.2     1  UNL1        0.0000
   8566 C          28.3960    1.2990   34.8008 C.3     1  UNL1        0.0000
   8567 C          36.0337   -3.9093   34.9031 C.3     1  UNL1        0.0000
   8568 C          33.0283    8.2341   31.0142 C.3     1  UNL1        0.0000
   8569 C          41.6611    2.5733   32.1417 C.2     1  UNL1        0.0000
   8570 C          27.4641    1.9240   33.8237 C.ar    1  UNL1        0.0000
   8571 C          36.9739   -4.5236   33.9559 C.ar    1  UNL1        0.0000
   8572 C          32.1385    8.8809   32.0139 C.ar    1  UNL1        0.0000
   8573 C          41.4123    2.6482   33.5481 C.3     1  UNL1        0.0000
   8574 C          27.6805    1.8040   32.4357 C.ar    1  UNL1        0.0000
   8575 C          38.1034   -5.2839   34.4090 C.ar    1  UNL1        0.0000
   8576 C          31.0438    9.6538   31.5690 C.ar    1  UNL1        0.0000
   8577 C          32.3930    8.7101   33.3688 C.ar    1  UNL1        0.0000
   8578 C          36.7262   -4.3915   32.5720 C.ar    1  UNL1        0.0000
   8579 C          42.7948    1.8743   31.6660 C.3     1  UNL1        0.0000
   8580 C          26.3639    2.6164   34.3224 C.ar    1  UNL1        0.0000
   8581 C          40.9768    0.0918   26.4596 C.ar    1  UNL1        0.0000
   8582 C          34.5071   11.8834   26.4846 C.ar    1  UNL1        0.0000
   8583 C          43.4613    5.8549   26.3336 C.2     1  UNL1        0.0000
   8584 C          30.1029    7.3974   26.3142 C.ar    1  UNL1        0.0000
   8585 C          35.7111    3.9204   32.0194 C.3     1  UNL1        0.0000
   8586 C          30.9551   -3.1740   33.9375 C.3     1  UNL1        0.0000
   8587 C          40.8410    1.5467   26.4364 C.3     1  UNL1        0.0000
   8588 C          34.4144   10.4499   26.4471 C.3     1  UNL1        0.0000
   8589 C          42.1634    5.2381   26.3804 C.2     1  UNL1        0.0000
   8590 C          31.5053    7.8117   26.3387 C.3     1  UNL1        0.0000
   8591 C          41.0162   -0.5773   27.6893 C.ar    1  UNL1        0.0000
   8592 C          29.8694    5.5231   38.3422 C.ar    1  UNL1        0.0000
   8593 C          44.1166    6.1298   27.5675 C.3     1  UNL1        0.0000
   8594 C          24.8352    0.1016   38.1807 C.ar    1  UNL1        0.0000
   8595 C          39.5209   -0.9428   38.1952 C.3     1  UNL1        0.0000
   8596 C          29.4058    7.1670   27.5267 C.ar    1  UNL1        0.0000
   8597 C          36.3587   -7.7146   38.3443 C.ar    1  UNL1        0.0000
   8598 C          34.5209   12.6346   27.7139 C.ar    1  UNL1        0.0000
   8599 N          34.5759   12.0358   28.9520 N.pl3   1  UNL1        0.0000
   8600 N          38.9419   -1.1256   36.9562 N.3     1  UNL1        0.0000
   8601 N          40.3314    3.2944   34.0794 N.3     1  UNL1        0.0000
   8602 N          38.4344   -5.4422   35.7264 N.pl3   1  UNL1        0.0000
   8603 O          39.5887    3.5827   31.5123 O.2     1  UNL1        0.0000
   8604 O          29.1650    0.3481   34.4025 O.3     1  UNL1        0.0000
   8605 O          36.4152   -3.7848   36.1242 O.3     1  UNL1        0.0000
   8606 O          32.9624    8.6637   29.8146 O.3     1  UNL1        0.0000
   8607 O          33.7988    7.2768   31.4006 O.3     1  UNL1        0.0000
   8608 O          34.8633   -3.5409   34.4976 O.3     1  UNL1        0.0000
   8609 O          41.1769    3.2583   29.9348 O.2     1  UNL1        0.0000
   8610 O          28.3540    1.7352   36.0005 O.3     1  UNL1        0.0000
   8611 O          38.5044    3.0035   28.9358 O.3     1  UNL1        0.0000
   8612 O          30.8582    0.8621   36.5008 O.3     1  UNL1        0.0000
   8613 O          39.4432    5.2908   29.3857 O.3     1  UNL1        0.0000
   8614 O          29.1060   -0.8626   36.9935 O.3     1  UNL1        0.0000
   8615 O          33.7125   -4.0706   37.0882 O.3     1  UNL1        0.0000
   8616 O          35.4810    7.8249   29.3163 O.3     1  UNL1        0.0000
   8617 O          34.6665   -1.8091   36.6241 O.3     1  UNL1        0.0000
   8618 O          33.7747    6.0677   28.7989 O.3     1  UNL1        0.0000
   8619 O          36.0838   -4.9248   38.3903 O.3     1  UNL1        0.0000
   8620 O          34.3312    9.7485   27.5423 O.3     1  UNL1        0.0000
   8621 O          36.8859   -2.1366   38.3852 O.2     1  UNL1        0.0000
   8622 O          32.0953    7.9127   27.4822 O.3     1  UNL1        0.0000
   8623 O          41.6241    4.9379   27.5284 O.2     1  UNL1        0.0000
   8624 O          27.4698    0.9776   38.3162 O.3     1  UNL1        0.0000
   8625 O          40.8285    2.1836   27.5578 O.3     1  UNL1        0.0000
   8626 O          29.7380    2.7599   38.3975 O.3     1  UNL1        0.0000
   8627 O          36.6962    5.3949   29.4368 O.3     1  UNL1        0.0000
   8628 O          31.9943   -1.6089   36.4179 O.3     1  UNL1        0.0000
   8629 O          39.1503    4.1698   26.5040 O.3     1  UNL1        0.0000
   8630 O          34.5827    7.2718   26.3373 O.3     1  UNL1        0.0000
   8631 H          35.8212    0.1956   34.8244 H       1  UNL1        0.0000
   8632 H          31.8995   -5.5836   33.1768 H       1  UNL1        0.0000
   8633 H          36.5794    9.1103   32.0493 H      49  UNL49       0.0000
   8634 H          36.9294    1.9354   33.3937 H       1  UNL1        0.0000
   8635 H          31.9856    1.9778   34.0113 H       1  UNL1        0.0000
   8636 H          28.4016   -3.0822   33.0752 H       1  UNL1        0.0000
   8637 H          33.3580    0.2109   35.0801 H       1  UNL1        0.0000
   8638 H          33.0997    3.7373   32.6152 H       1  UNL1        0.0000
   8639 H          37.6831    6.9343   31.6090 H      49  UNL49       0.0000
   8640 H          24.0897    7.1677   32.0513 H       1  UNL1        0.0000
   8641 C          35.0764    2.9293   32.9161 C.ar    1  UNL1        0.0000
   8642 C          33.8417    0.9760   34.4750 C.ar    1  UNL1        0.0000
   8643 C          38.2543    7.7479   32.0567 C.2    49  UNL49       0.0000
   8644 C          30.2228   -4.2287   33.1921 C.ar    1  UNL1        0.0000
   8645 C          33.6804    2.9548   33.0979 C.ar    1  UNL1        0.0000
   8646 C          35.2322    0.9613   34.3229 C.ar    1  UNL1        0.0000
   8647 C          37.6282    8.9743   32.3077 C.2    49  UNL49       0.0000
   8648 C          30.8516   -5.4563   32.9143 C.ar    1  UNL1        0.0000
   8649 C          39.6074    7.5616   32.3610 C.3    49  UNL49       0.0000
   8650 C          28.8694   -4.0397   32.8570 C.ar    1  UNL1        0.0000
   8651 C          35.8513    1.9333   33.5369 C.ar    1  UNL1        0.0000
   8652 C          33.0652    1.9721   33.8710 C.ar    1  UNL1        0.0000
   8653 O          36.9535    3.7838   31.7158 O.3     1  UNL1        0.0000
   8654 O          30.3322   -2.0949   34.2490 O.3     1  UNL1        0.0000
   8655 O          32.1565   -3.4146   34.3190 O.3     1  UNL1        0.0000
   8656 O          34.9863    4.8636   31.5381 O.3     1  UNL1        0.0000
   8657 N          38.0232    9.2093   51.5398 N.pl3  49  UNL49       0.0000
   8658 N          38.4863    8.4771   53.5437 N.pl3  49  UNL49       0.0000
   8659 C          38.6434    7.9791   51.3900 C.2    49  UNL49       0.0000
   8660 C          38.9340    7.5210   52.6477 C.2    49  UNL49       0.0000
   8661 C          39.8010    9.5282   55.3860 C.3    49  UNL49       0.0000
   8662 C          37.6485   10.1239   50.4542 C.3    49  UNL49       0.0000
   8663 C          37.9428    9.4918   52.8494 C.3    49  UNL49       0.0000
   8664 C          38.7399    8.5005   55.0008 C.3    49  UNL49       0.0000
   8665 H          38.9000    7.5735   50.4212 H      49  UNL49       0.0000
   8666 H          39.4345    6.6191   52.9742 H      49  UNL49       0.0000
   8667 H          40.7623    9.3044   54.9109 H      49  UNL49       0.0000
   8668 H          38.5276   10.2696   49.8175 H      49  UNL49       0.0000
   8669 H          39.5111   10.5407   55.0790 H      49  UNL49       0.0000
   8670 H          36.8282    9.6805   49.8844 H      49  UNL49       0.0000
   8671 H          39.9250    9.5157   56.4763 H      49  UNL49       0.0000
   8672 H          39.0592    7.4864   55.2735 H      49  UNL49       0.0000
   8673 H          37.3546   11.0776   50.8992 H      49  UNL49       0.0000
   8674 H          37.5710   10.4182   53.2630 H      49  UNL49       0.0000
   8675 H          37.7782    8.6916   55.4899 H      49  UNL49       0.0000
   8676 N          40.8327   12.2420   51.0932 N.3    49  UNL49       0.0000
   8677 C          40.7189   13.6231   53.5048 C.3    49  UNL49       0.0000
   8678 C          43.0228   10.7363   51.2811 C.3    49  UNL49       0.0000
   8679 O          39.4866   14.3124   51.2661 O.2    49  UNL49       0.0000
   8680 O          38.6778   12.2994   52.5326 O.2    49  UNL49       0.0000
   8681 O          40.8581    9.9549   50.0250 O.2    49  UNL49       0.0000
   8682 O          40.8157   10.0611   52.5336 O.2    49  UNL49       0.0000
   8683 F          41.7498   14.4465   53.1979 F      49  UNL49       0.0000
   8684 F          43.4802   11.5237   52.2817 F      49  UNL49       0.0000
   8685 F          41.2255   12.5591   54.1838 F      49  UNL49       0.0000
   8686 F          39.8584   14.2871   54.3309 F      49  UNL49       0.0000
   8687 F          43.5107   11.1966   50.0930 F      49  UNL49       0.0000
   8688 F          43.5102    9.4816   51.4682 F      49  UNL49       0.0000
   8689 S          39.7852   13.0763   51.9713 S.O2   49  UNL49       0.0000
   8690 S          41.1613   10.6798   51.2573 S.O2   49  UNL49       0.0000
   8691 TI         24.7219   -6.0288   50.7424 Ti      1  UNL1        0.0000
   8692 TI         35.5524   -3.1476   41.3776 Ti      1  UNL1        0.0000
   8693 TI         28.8186   -9.9650   48.9224 Ti      1  UNL1        0.0000
   8694 TI         30.3298   -0.8029   43.1494 Ti      1  UNL1        0.0000
   8695 TI         29.3312    0.8754   41.2450 Ti      1  UNL1        0.0000
   8696 TI         30.7068  -10.2194   50.8758 Ti      1  UNL1        0.0000
   8697 TI         25.6711   -7.7647   48.8509 Ti      1  UNL1        0.0000
   8698 TI         33.5646   -2.8451   43.2251 Ti      1  UNL1        0.0000
   8699 H          25.2238   -2.1317   50.5230 H      49  UNL49       0.0000
   8700 H          36.3612   -7.0537   41.6983 H       1  UNL1        0.0000
   8701 H          20.7620   -6.7855   50.3600 H      49  UNL49       0.0000
   8702 H          38.9345   -1.1433   41.5783 H       1  UNL1        0.0000
   8703 H          31.6824  -14.2539   50.4899 H      49  UNL49       0.0000
   8704 H          25.2727    0.2855   41.5671 H       1  UNL1        0.0000
   8705 H          29.8257   -0.7614   39.3719 H       1  UNL1        0.0000
   8706 H          33.6769   -3.3903   39.6777 H       1  UNL1        0.0000
   8707 H          31.2167  -10.8865   45.3647 H       1  UNL1        0.0000
   8708 H          28.6063    1.0341   46.7684 H       1  UNL1        0.0000
   8709 H          21.5985   -4.3761   48.4950 H       1  UNL1        0.0000
   8710 H          38.3071   -5.2319   43.6836 H       1  UNL1        0.0000
   8711 H          23.8996   -5.8235   45.1612 H       1  UNL1        0.0000
   8712 H          26.2311    2.7033   43.5983 H       1  UNL1        0.0000
   8713 H          29.7235    3.9782   42.1005 H       1  UNL1        0.0000
   8714 H          36.2033   -9.0725   42.9008 H       1  UNL1        0.0000
   8715 H          32.4224   -1.1228   41.8108 H       1  UNL1        0.0000
   8716 H          27.7379   -8.1166   50.2161 H       1  UNL1        0.0000
   8717 H          34.9415   -8.2845   49.2655 H      49  UNL49       0.0000
   8718 H          33.4604   -8.7536   50.0128 H      49  UNL49       0.0000
   8719 H          35.5157   -3.8509   48.1666 H       1  UNL1        0.0000
   8720 H          34.9459   -3.4923   46.5480 H       1  UNL1        0.0000
   8721 H          34.4527  -13.2394   49.0754 H       1  UNL1        0.0000
   8722 H          33.1736  -12.1388   49.5328 H       1  UNL1        0.0000
   8723 C          36.1304   -3.8889   44.2411 C.2     1  UNL1        0.0000
   8724 C          23.7614   -5.7674   47.8954 C.3     1  UNL1        0.0000
   8725 C          31.3991  -10.9757   47.9977 C.3     1  UNL1        0.0000
   8726 C          28.3937    1.1676   44.1088 C.3     1  UNL1        0.0000
   8727 C          37.0264   -4.4932   45.2363 C.2     1  UNL1        0.0000
   8728 C          22.8295   -5.1424   46.9183 C.ar    1  UNL1        0.0000
   8729 C          32.3393  -11.5901   47.0505 C.ar    1  UNL1        0.0000
   8730 C          27.5038    1.8144   45.1086 C.ar    1  UNL1        0.0000
   8731 C          36.7777   -4.4183   46.6427 C.3     1  UNL1        0.0000
   8732 C          23.0459   -5.2624   45.5303 C.ar    1  UNL1        0.0000
   8733 C          33.4687  -12.3504   47.5036 C.ar    1  UNL1        0.0000
   8734 C          26.4091    2.5874   44.6636 C.ar    1  UNL1        0.0000
   8735 C          27.7583    1.6437   46.4634 C.ar    1  UNL1        0.0000
   8736 C          32.0916  -11.4579   45.6666 C.ar    1  UNL1        0.0000
   8737 C          38.1601   -5.1922   44.7606 C.3     1  UNL1        0.0000
   8738 C          21.7293   -4.4500   47.4170 C.ar    1  UNL1        0.0000
   8739 C          36.3422   -6.9746   39.5542 C.ar    1  UNL1        0.0000
   8740 C          29.8725    4.8170   39.5792 C.ar    1  UNL1        0.0000
   8741 C          38.8266   -1.2115   39.4282 C.2     1  UNL1        0.0000
   8742 C          25.4683    0.3309   39.4088 C.ar    1  UNL1        0.0000
   8743 C          31.0765   -3.1461   45.1140 C.3     1  UNL1        0.0000
   8744 C          26.3204  -10.2404   47.0321 C.3     1  UNL1        0.0000
   8745 C          36.2063   -5.5197   39.5310 C.3     1  UNL1        0.0000
   8746 C          29.7797    3.3835   39.5417 C.3     1  UNL1        0.0000
   8747 C          37.5288   -1.8283   39.4751 C.2     1  UNL1        0.0000
   8748 C          26.8706    0.7453   39.4333 C.3     1  UNL1        0.0000
   8749 C          36.3815   -7.6437   40.7839 C.ar    1  UNL1        0.0000
   8750 C          25.2347   -1.5433   51.4369 C.2    49  UNL49       0.0000
   8751 C          39.4819   -0.9367   40.6621 C.3     1  UNL1        0.0000
   8752 C          20.2005   -6.9648   51.2753 C.2    49  UNL49       0.0000
   8753 C          34.8863   -8.0092   51.2898 C.3    49  UNL49       0.0000
   8754 C          24.7711    0.1005   40.6213 C.ar    1  UNL1        0.0000
   8755 C          31.7240  -14.7811   51.4389 C.2    49  UNL49       0.0000
   8756 C          29.8862    5.5682   40.8085 C.ar    1  UNL1        0.0000
   8757 N          29.9413    4.9693   42.0466 N.pl3   1  UNL1        0.0000
   8758 N          34.3072   -8.1920   50.0508 N.3    49  UNL49       0.0000
   8759 N          35.6968   -3.7720   47.1740 N.3     1  UNL1        0.0000
   8760 N          33.7998  -12.5086   48.8210 N.pl3   1  UNL1        0.0000
   8761 O          34.9541   -3.4838   44.6069 O.2     1  UNL1        0.0000
   8762 O          24.5304   -6.7183   47.4971 O.3     1  UNL1        0.0000
   8763 O          31.7806  -10.8513   49.2188 O.3     1  UNL1        0.0000
   8764 O          28.3278    1.5973   42.9092 O.3     1  UNL1        0.0000
   8765 O          29.1641    0.2104   44.4952 O.3     1  UNL1        0.0000
   8766 O          30.2287  -10.6073   47.5922 O.3     1  UNL1        0.0000
   8767 O          36.5423   -3.8081   43.0294 O.2     1  UNL1        0.0000
   8768 O          23.7193   -5.3312   49.0951 O.3     1  UNL1        0.0000
   8769 O          33.8698   -4.0630   42.0304 O.3     1  UNL1        0.0000
   8770 O          26.2236   -6.2044   49.5955 O.3     1  UNL1        0.0000
   8771 O          34.8086   -1.7757   42.4804 O.3     1  UNL1        0.0000
   8772 O          24.4714   -7.9290   50.0881 O.3     1  UNL1        0.0000
   8773 O          29.0779  -11.1370   50.1828 O.3     1  UNL1        0.0000
   8774 O          30.8463    0.7584   42.4109 O.3     1  UNL1        0.0000
   8775 O          30.0318   -8.8755   49.7187 O.3     1  UNL1        0.0000
   8776 O          29.1401   -0.9987   41.8935 O.3     1  UNL1        0.0000
   8777 O          31.4491  -11.9912   51.4849 O.3     1  UNL1        0.0000
   8778 O          29.6966    2.6820   40.6369 O.3     1  UNL1        0.0000
   8779 O          32.2513   -9.2031   51.4798 O.3     1  UNL1        0.0000
   8780 O          27.4607    0.8463   40.5768 O.3     1  UNL1        0.0000
   8781 O          36.9895   -2.1285   40.6230 O.2     1  UNL1        0.0000
   8782 O          22.8351   -6.0889   51.4109 O.3     1  UNL1        0.0000
   8783 O          36.1939   -4.8828   40.6524 O.3     1  UNL1        0.0000
   8784 O          25.1033   -4.3065   51.4921 O.3     1  UNL1        0.0000
   8785 O          32.0616   -1.6715   42.5314 O.3     1  UNL1        0.0000
   8786 O          27.3596   -8.6753   49.5125 O.3     1  UNL1        0.0000
   8787 O          34.5157   -2.8966   39.5986 O.3     1  UNL1        0.0000
   8788 O          29.9480    0.2054   39.4319 O.3     1  UNL1        0.0000
   8789 H          31.1865   -6.8709   47.9190 H       1  UNL1        0.0000
   8790 H          27.2649  -12.6500   46.2714 H       1  UNL1        0.0000
   8791 H          31.9448    2.0439   45.1439 H      49  UNL49       0.0000
   8792 H          32.2947   -5.1310   46.4883 H       1  UNL1        0.0000
   8793 H          27.3509   -5.0886   47.1059 H       1  UNL1        0.0000
   8794 H          23.7670  -10.1486   46.1698 H       1  UNL1        0.0000
   8795 H          28.7234   -6.8555   48.1747 H       1  UNL1        0.0000
   8796 H          28.4651   -3.3291   45.7098 H       1  UNL1        0.0000
   8797 H          33.0485   -0.1321   44.7036 H      49  UNL49       0.0000
   8798 H          19.4550    0.1013   45.1459 H       1  UNL1        0.0000
   8799 C          30.4418   -4.1372   46.0107 C.ar    1  UNL1        0.0000
   8800 C          29.2071   -6.0905   47.5696 C.ar    1  UNL1        0.0000
   8801 C          33.6196    0.6814   45.1513 C.2    49  UNL49       0.0000
   8802 C          25.5882  -11.2951   46.2867 C.ar    1  UNL1        0.0000
   8803 C          29.0457   -4.1116   46.1926 C.ar    1  UNL1        0.0000
   8804 C          30.5975   -6.1052   47.4175 C.ar    1  UNL1        0.0000
   8805 C          32.9935    1.9079   45.4023 C.2    49  UNL49       0.0000
   8806 C          26.2169  -12.5228   46.0089 C.ar    1  UNL1        0.0000
   8807 C          34.9728    0.4951   45.4556 C.3    49  UNL49       0.0000
   8808 C          24.2347  -11.1061   45.9516 C.ar    1  UNL1        0.0000
   8809 C          31.2166   -5.1331   46.6315 C.ar    1  UNL1        0.0000
   8810 C          28.4305   -5.0943   46.9656 C.ar    1  UNL1        0.0000
   8811 O          32.3189   -3.2826   44.8104 O.3     1  UNL1        0.0000
   8812 O          25.6975   -9.1613   47.3436 O.3     1  UNL1        0.0000
   8813 O          27.5218  -10.4810   47.4136 O.3     1  UNL1        0.0000
   8814 O          30.3516   -2.2028   44.6327 O.3     1  UNL1        0.0000
   8815 N          33.3886    2.1428   64.6344 N.pl3  49  UNL49       0.0000
   8816 N          33.8516    1.4107   66.6383 N.pl3  49  UNL49       0.0000
   8817 C          34.0088    0.9127   64.4846 C.2    49  UNL49       0.0000
   8818 C          34.2993    0.4546   65.7423 C.2    49  UNL49       0.0000
   8819 C          35.1663    2.4618   68.4806 C.3    49  UNL49       0.0000
   8820 C          33.0138    3.0574   63.5488 C.3    49  UNL49       0.0000
   8821 C          33.3081    2.4254   65.9440 C.3    49  UNL49       0.0000
   8822 C          34.1053    1.4341   68.0954 C.3    49  UNL49       0.0000
   8823 H          34.2654    0.5071   63.5158 H      49  UNL49       0.0000
   8824 H          34.7999   -0.4473   66.0688 H      49  UNL49       0.0000
   8825 H          36.1276    2.2380   68.0055 H      49  UNL49       0.0000
   8826 H          33.8929    3.2032   62.9121 H      49  UNL49       0.0000
   8827 H          34.8765    3.4743   68.1736 H      49  UNL49       0.0000
   8828 H          32.1936    2.6141   62.9790 H      49  UNL49       0.0000
   8829 H          35.2904    2.4492   69.5709 H      49  UNL49       0.0000
   8830 H          34.4246    0.4199   68.3682 H      49  UNL49       0.0000
   8831 H          32.7200    4.0111   63.9938 H      49  UNL49       0.0000
   8832 H          32.9363    3.3518   66.3576 H      49  UNL49       0.0000
   8833 H          33.1436    1.6252   68.5845 H      49  UNL49       0.0000
   8834 N          36.1980    5.1756   64.1878 N.3    49  UNL49       0.0000
   8835 C          36.0843    6.5567   66.5994 C.3    49  UNL49       0.0000
   8836 C          38.3882    3.6699   64.3757 C.3    49  UNL49       0.0000
   8837 O          34.8519    7.2460   64.3607 O.2    49  UNL49       0.0000
   8838 O          34.0432    5.2329   65.6272 O.2    49  UNL49       0.0000
   8839 O          36.2235    2.8885   63.1196 O.2    49  UNL49       0.0000
   8840 O          36.1811    2.9947   65.6282 O.2    49  UNL49       0.0000
   8841 F          37.1151    7.3801   66.2925 F      49  UNL49       0.0000
   8842 F          38.8455    4.4573   65.3764 F      49  UNL49       0.0000
   8843 F          36.5908    5.4926   67.2785 F      49  UNL49       0.0000
   8844 F          35.2238    7.2207   67.4255 F      49  UNL49       0.0000
   8845 F          38.8761    4.1302   63.1876 F      49  UNL49       0.0000
   8846 F          38.8755    2.4152   64.5628 F      49  UNL49       0.0000
   8847 S          35.1506    6.0099   65.0659 S.O2   49  UNL49       0.0000
   8848 S          36.5266    3.6134   64.3519 S.O2   49  UNL49       0.0000
   8849 TI         32.1088   29.7830   11.4021 Ti      1  UNL1        0.0000
   8850 TI         42.9393   32.6642    2.0373 Ti      1  UNL1        0.0000
   8851 TI         36.2055   25.8468    9.5821 Ti      1  UNL1        0.0000
   8852 TI         37.7167   35.0089    3.8091 Ti      1  UNL1        0.0000
   8853 TI         36.7181   36.6872    1.9047 Ti      1  UNL1        0.0000
   8854 TI         38.0937   25.5924   11.5355 Ti      1  UNL1        0.0000
   8855 TI         33.0580   28.0471    9.5106 Ti      1  UNL1        0.0000
   8856 TI         40.9515   32.9668    3.8847 Ti      1  UNL1        0.0000
   8857 H          32.6107   33.6801   11.1826 H       1  UNL1        0.0000
   8858 H          43.7481   28.7581    2.3579 H       1  UNL1        0.0000
   8859 H          28.1489   29.0264   11.0196 H       1  UNL1        0.0000
   8860 H          46.3214   34.6685    2.2379 H       1  UNL1        0.0000
   8861 H          39.0693   21.5579   11.1495 H       1  UNL1        0.0000
   8862 H          32.6596   36.0973    2.2267 H       1  UNL1        0.0000
   8863 H          37.2126   35.0504    0.0316 H       1  UNL1        0.0000
   8864 H          41.0638   32.4215    0.3373 H       1  UNL1        0.0000
   8865 H          38.6036   24.9253    6.0244 H       1  UNL1        0.0000
   8866 H          35.9933   36.8459    7.4280 H       1  UNL1        0.0000
   8867 H          28.9854   31.4357    9.1547 H       1  UNL1        0.0000
   8868 H          45.6940   30.5799    4.3433 H       1  UNL1        0.0000
   8869 H          31.2865   29.9883    5.8208 H       1  UNL1        0.0000
   8870 H          33.6180   38.5151    4.2579 H       1  UNL1        0.0000
   8871 H          37.1104   39.7901    2.7601 H       1  UNL1        0.0000
   8872 H          43.5902   26.7393    3.5604 H       1  UNL1        0.0000
   8873 H          39.8093   34.6891    2.4704 H       1  UNL1        0.0000
   8874 H          35.1248   27.6952   10.8757 H       1  UNL1        0.0000
   8875 H          42.3284   27.5273    9.9251 H       1  UNL1        0.0000
   8876 H          40.8473   27.0582   10.6725 H       1  UNL1        0.0000
   8877 H          42.9026   31.9609    8.8262 H       1  UNL1        0.0000
   8878 H          42.3329   32.3195    7.2077 H       1  UNL1        0.0000
   8879 H          41.8396   22.5725    9.7351 H       1  UNL1        0.0000
   8880 H          40.5605   23.6730   10.1925 H       1  UNL1        0.0000
   8881 C          43.5173   31.9230    4.9008 C.2     1  UNL1        0.0000
   8882 C          31.1483   30.0444    8.5550 C.3     1  UNL1        0.0000
   8883 C          38.7860   24.8361    8.6574 C.3     1  UNL1        0.0000
   8884 C          35.7806   36.9794    4.7684 C.3     1  UNL1        0.0000
   8885 C          44.4134   31.3186    5.8960 C.2     1  UNL1        0.0000
   8886 C          30.2164   30.6694    7.5780 C.ar    1  UNL1        0.0000
   8887 C          39.7262   24.2217    7.7102 C.ar    1  UNL1        0.0000
   8888 C          34.8908   37.6262    5.7682 C.ar    1  UNL1        0.0000
   8889 C          44.1646   31.3936    7.3024 C.3     1  UNL1        0.0000
   8890 C          30.4328   30.5494    6.1900 C.ar    1  UNL1        0.0000
   8891 C          40.8557   23.4614    8.1632 C.ar    1  UNL1        0.0000
   8892 C          33.7960   38.3992    5.3233 C.ar    1  UNL1        0.0000
   8893 C          35.1453   37.4555    7.1231 C.ar    1  UNL1        0.0000
   8894 C          39.4785   24.3539    6.3263 C.ar    1  UNL1        0.0000
   8895 C          45.5470   30.6197    5.4203 C.3     1  UNL1        0.0000
   8896 C          29.1162   31.3618    8.0767 C.ar    1  UNL1        0.0000
   8897 C          43.7291   28.8372    0.2138 C.2     1  UNL1        0.0000
   8898 C          37.2594   40.6288    0.2389 C.2     1  UNL1        0.0000
   8899 C          46.2135   34.6003    0.0878 C.2     1  UNL1        0.0000
   8900 C          32.8552   36.1428    0.0685 C.2     1  UNL1        0.0000
   8901 C          38.4634   32.6657    5.7736 C.3     1  UNL1        0.0000
   8902 C          33.7073   25.5714    7.6918 C.3     1  UNL1        0.0000
   8903 C          43.5932   30.2921    0.1906 C.2     1  UNL1        0.0000
   8904 C          37.1666   39.1953    0.2014 C.2     1  UNL1        0.0000
   8905 C          44.9157   33.9835    0.1347 C.2     1  UNL1        0.0000
   8906 C          34.2575   36.5571    0.0929 C.2     1  UNL1        0.0000
   8907 C          43.7685   28.1681    1.4435 C.2     1  UNL1        0.0000
   8908 C          32.6216   34.2685   12.0965 C.ar    1  UNL1        0.0000
   8909 C          46.8688   34.8751    1.3218 C.3     1  UNL1        0.0000
   8910 C          27.5874   28.8470   11.9350 C.ar    1  UNL1        0.0000
   8911 C          42.2732   27.8026   11.9495 C.3     1  UNL1        0.0000
   8912 C          32.1580   35.9123    1.2809 C.2     1  UNL1        0.0000
   8913 C          39.1110   21.0307   12.0986 C.ar    1  UNL1        0.0000
   8914 C          37.2731   41.3800    1.4681 C.2     1  UNL1        0.0000
   8915 N          37.3282   40.7812    2.7063 N.pl3   1  UNL1        0.0000
   8916 N          41.6942   27.6198   10.7105 N.3     1  UNL1        0.0000
   8917 N          43.0837   32.0398    7.8337 N.3     1  UNL1        0.0000
   8918 N          41.1867   23.3032    9.4806 N.pl3   1  UNL1        0.0000
   8919 O          42.3410   32.3281    5.2666 O.2     1  UNL1        0.0000
   8920 O          31.9173   29.0935    8.1568 O.3     1  UNL1        0.0000
   8921 O          39.1675   24.9606    9.8785 O.3     1  UNL1        0.0000
   8922 O          35.7147   37.4091    3.5688 O.3     1  UNL1        0.0000
   8923 O          36.5510   36.0222    5.1549 O.3     1  UNL1        0.0000
   8924 O          37.6156   25.2045    8.2518 O.3     1  UNL1        0.0000
   8925 O          43.9292   32.0037    3.6890 O.2     1  UNL1        0.0000
   8926 O          31.1063   30.4806    9.7547 O.3     1  UNL1        0.0000
   8927 O          41.2567   31.7488    2.6900 O.3     1  UNL1        0.0000
   8928 O          33.6105   29.6075   10.2551 O.3     1  UNL1        0.0000
   8929 O          42.1955   34.0361    3.1400 O.3     1  UNL1        0.0000
   8930 O          31.8583   27.8828   10.7478 O.3     1  UNL1        0.0000
   8931 O          36.4648   24.6748   10.8425 O.3     1  UNL1        0.0000
   8932 O          38.2332   36.5702    3.0706 O.3     1  UNL1        0.0000
   8933 O          37.4188   26.9363   10.3783 O.3     1  UNL1        0.0000
   8934 O          36.5270   34.8131    2.5531 O.3     1  UNL1        0.0000
   8935 O          38.8360   23.8206   12.1446 O.3     1  UNL1        0.0000
   8936 O          37.0835   38.4939    1.2966 O.2     1  UNL1        0.0000
   8937 O          39.6382   26.6088   12.1394 O.2     1  UNL1        0.0000
   8938 O          34.8476   36.6581    1.2365 O.2     1  UNL1        0.0000
   8939 O          44.3764   33.6833    1.2827 O.2     1  UNL1        0.0000
   8940 O          30.2220   29.7229   12.0705 O.3     1  UNL1        0.0000
   8941 O          43.5808   30.9290    1.3121 O.2     1  UNL1        0.0000
   8942 O          32.4902   31.5053   12.1518 O.3     1  UNL1        0.0000
   8943 O          39.4485   34.1403    3.1911 O.3     1  UNL1        0.0000
   8944 O          34.7465   27.1365   10.1721 O.3     1  UNL1        0.0000
   8945 O          41.9026   32.9152    0.2583 O.3     1  UNL1        0.0000
   8946 O          37.3349   36.0172    0.0916 O.3     1  UNL1        0.0000
   8947 H          38.5735   28.9410    8.5787 H       1  UNL1        0.0000
   8948 H          34.6518   23.1618    6.9311 H       1  UNL1        0.0000
   8949 H          39.3317   37.8557    5.8035 H      49  UNL49       0.0000
   8950 H          39.6816   30.6808    7.1480 H       1  UNL1        0.0000
   8951 H          34.7378   30.7232    7.7656 H       1  UNL1        0.0000
   8952 H          31.1539   25.6632    6.8295 H       1  UNL1        0.0000
   8953 H          36.1103   28.9563    8.8344 H       1  UNL1        0.0000
   8954 H          35.8520   32.4827    6.3694 H       1  UNL1        0.0000
   8955 H          40.4354   35.6797    5.3632 H      49  UNL49       0.0000
   8956 H          26.8419   35.9131    5.8056 H       1  UNL1        0.0000
   8957 C          37.8287   31.6746    6.6704 C.ar    1  UNL1        0.0000
   8958 C          36.5940   29.7214    8.2293 C.ar    1  UNL1        0.0000
   8959 C          41.0065   36.4932    5.8110 C.2    49  UNL49       0.0000
   8960 C          32.9751   24.5167    6.9463 C.ar    1  UNL1        0.0000
   8961 C          36.4326   31.7002    6.8522 C.ar    1  UNL1        0.0000
   8962 C          37.9844   29.7067    8.0772 C.ar    1  UNL1        0.0000
   8963 C          40.3804   37.7197    6.0620 C.2    49  UNL49       0.0000
   8964 C          33.6039   23.2891    6.6685 C.ar    1  UNL1        0.0000
   8965 C          42.3597   36.3070    6.1152 C.3    49  UNL49       0.0000
   8966 C          31.6216   24.7057    6.6112 C.ar    1  UNL1        0.0000
   8967 C          38.6035   30.6787    7.2911 C.ar    1  UNL1        0.0000
   8968 C          35.8174   30.7175    7.6253 C.ar    1  UNL1        0.0000
   8969 O          39.7058   32.5292    5.4701 O.3     1  UNL1        0.0000
   8970 O          33.0844   26.6505    8.0032 O.3     1  UNL1        0.0000
   8971 O          34.9087   25.3308    8.0732 O.3     1  UNL1        0.0000
   8972 O          37.7385   33.6090    5.2924 O.3     1  UNL1        0.0000
   8973 N          40.7755   37.9547   25.2941 N.pl3  49  UNL49       0.0000
   8974 N          41.2386   37.2225   27.2979 N.pl3  49  UNL49       0.0000
   8975 C          41.3957   36.7245   25.1443 C.2    49  UNL49       0.0000
   8976 C          41.6863   36.2664   26.4019 C.2    49  UNL49       0.0000
   8977 C          42.5532   38.2736   29.1403 C.3    49  UNL49       0.0000
   8978 C          40.4007   38.8693   24.2085 C.3    49  UNL49       0.0000
   8979 C          40.6950   38.2372   26.6037 C.3    49  UNL49       0.0000
   8980 C          41.4922   37.2459   28.7551 C.3    49  UNL49       0.0000
   8981 H          41.6523   36.3189   24.1755 H      49  UNL49       0.0000
   8982 H          42.1868   35.3645   26.7285 H      49  UNL49       0.0000
   8983 H          43.5146   38.0498   28.6652 H      49  UNL49       0.0000
   8984 H          41.2798   39.0150   23.5717 H      49  UNL49       0.0000
   8985 H          42.2634   39.2861   28.8333 H      49  UNL49       0.0000
   8986 H          39.5805   38.4259   23.6387 H      49  UNL49       0.0000
   8987 H          42.6773   38.2611   30.2305 H      49  UNL49       0.0000
   8988 H          41.8115   36.2318   29.0278 H      49  UNL49       0.0000
   8989 H          40.1069   39.8229   24.6534 H      49  UNL49       0.0000
   8990 H          40.3232   39.1636   27.0173 H      49  UNL49       0.0000
   8991 H          40.5305   37.4370   29.2441 H      49  UNL49       0.0000
   8992 N          43.5850   40.9874   24.8474 N.3    49  UNL49       0.0000
   8993 C          43.4712   42.3685   27.2590 C.3    49  UNL49       0.0000
   8994 C          45.7751   39.4817   25.0354 C.3    49  UNL49       0.0000
   8995 O          42.2388   43.0578   25.0204 O.2    49  UNL49       0.0000
   8996 O          41.4301   41.0448   26.2868 O.2    49  UNL49       0.0000
   8997 O          43.6104   38.7003   23.7792 O.2    49  UNL49       0.0000
   8998 O          43.5680   38.8065   26.2878 O.2    49  UNL49       0.0000
   8999 F          44.5020   43.1919   26.9522 F      49  UNL49       0.0000
   9000 F          46.2324   40.2691   26.0360 F      49  UNL49       0.0000
   9001 F          43.9777   41.3045   27.9381 F      49  UNL49       0.0000
   9002 F          42.6107   43.0325   28.0851 F      49  UNL49       0.0000
   9003 F          46.2630   39.9420   23.8472 F      49  UNL49       0.0000
   9004 F          46.2625   38.2270   25.2224 F      49  UNL49       0.0000
   9005 S          42.5375   41.8217   25.7256 S.O2   49  UNL49       0.0000
   9006 S          43.9136   39.4252   25.0116 S.O2   49  UNL49       0.0000
   9007 TI         27.4742   22.7165   24.4967 Ti      1  UNL1        0.0000
   9008 TI         38.3046   25.5978   15.1319 Ti      1  UNL1        0.0000
   9009 TI         31.5709   18.7804   22.6767 Ti      1  UNL1        0.0000
   9010 TI         33.0820   27.9425   16.9037 Ti      1  UNL1        0.0000
   9011 TI         32.0835   29.6208   14.9993 Ti      1  UNL1        0.0000
   9012 TI         33.4591   18.5260   24.6301 Ti      1  UNL1        0.0000
   9013 TI         28.4234   20.9807   22.6052 Ti      1  UNL1        0.0000
   9014 TI         36.3168   25.9003   16.9793 Ti      1  UNL1        0.0000
   9015 H          27.9760   26.6136   24.2772 H       1  UNL1        0.0000
   9016 H          39.1134   21.6917   15.4526 H       1  UNL1        0.0000
   9017 H          23.5143   21.9599   24.1142 H       1  UNL1        0.0000
   9018 H          41.6868   27.6021   15.3325 H       1  UNL1        0.0000
   9019 H          34.4347   14.4915   24.2441 H       1  UNL1        0.0000
   9020 H          28.0250   29.0309   15.3213 H       1  UNL1        0.0000
   9021 H          32.5779   27.9840   13.1262 H       1  UNL1        0.0000
   9022 H          36.4291   25.3551   13.4319 H       1  UNL1        0.0000
   9023 H          33.9690   17.8589   19.1190 H       1  UNL1        0.0000
   9024 H          31.3586   29.7795   20.5226 H       1  UNL1        0.0000
   9025 H          24.3508   24.3693   22.2493 H       1  UNL1        0.0000
   9026 H          41.0594   23.5134   17.4379 H       1  UNL1        0.0000
   9027 H          26.6519   22.9218   18.9155 H       1  UNL1        0.0000
   9028 H          28.9834   31.4487   17.3525 H       1  UNL1        0.0000
   9029 H          32.4757   32.7236   15.8547 H       1  UNL1        0.0000
   9030 H          38.9556   19.6729   16.6550 H       1  UNL1        0.0000
   9031 H          35.1747   27.6226   15.5650 H       1  UNL1        0.0000
   9032 H          30.4902   20.6287   23.9703 H       1  UNL1        0.0000
   9033 H          37.6938   20.4609   23.0197 H       1  UNL1        0.0000
   9034 H          36.2127   19.9918   23.7671 H       1  UNL1        0.0000
   9035 H          38.2679   24.8945   21.9208 H       1  UNL1        0.0000
   9036 H          37.6982   25.2531   20.3023 H       1  UNL1        0.0000
   9037 H          37.2050   15.5060   22.8297 H       1  UNL1        0.0000
   9038 H          35.9258   16.6066   23.2871 H       1  UNL1        0.0000
   9039 C          38.8827   24.8565   17.9954 C.2     1  UNL1        0.0000
   9040 C          26.5136   22.9779   21.6496 C.3     1  UNL1        0.0000
   9041 C          34.1514   17.7696   21.7520 C.3     1  UNL1        0.0000
   9042 C          31.1459   29.9130   17.8630 C.3     1  UNL1        0.0000
   9043 C          39.7787   24.2522   18.9906 C.2     1  UNL1        0.0000
   9044 C          25.5817   23.6030   20.6726 C.ar    1  UNL1        0.0000
   9045 C          35.0916   17.1553   20.8048 C.ar    1  UNL1        0.0000
   9046 C          30.2561   30.5598   18.8628 C.ar    1  UNL1        0.0000
   9047 C          39.5299   24.3271   20.3970 C.3     1  UNL1        0.0000
   9048 C          25.7981   23.4830   19.2846 C.ar    1  UNL1        0.0000
   9049 C          36.2210   16.3950   21.2578 C.ar    1  UNL1        0.0000
   9050 C          29.1614   31.3328   18.4179 C.ar    1  UNL1        0.0000
   9051 C          30.5106   30.3890   20.2177 C.ar    1  UNL1        0.0000
   9052 C          34.8439   17.2874   19.4209 C.ar    1  UNL1        0.0000
   9053 C          40.9124   23.5532   18.5149 C.3     1  UNL1        0.0000
   9054 C          24.4816   24.2954   21.1713 C.ar    1  UNL1        0.0000
   9055 C          39.0945   21.7708   13.3085 C.ar    1  UNL1        0.0000
   9056 C          32.6247   33.5624   13.3335 C.ar    1  UNL1        0.0000
   9057 C          41.5789   27.5339   13.1825 C.2     1  UNL1        0.0000
   9058 C          28.2206   29.0763   13.1631 C.ar    1  UNL1        0.0000
   9059 C          33.8288   25.5993   18.8683 C.3     1  UNL1        0.0000
   9060 C          29.0727   18.5049   20.7864 C.3     1  UNL1        0.0000
   9061 C          38.9586   23.2256   13.2853 C.3     1  UNL1        0.0000
   9062 C          32.5320   32.1289   13.2960 C.3     1  UNL1        0.0000
   9063 C          40.2811   26.9171   13.2293 C.2     1  UNL1        0.0000
   9064 C          29.6229   29.4907   13.1875 C.3     1  UNL1        0.0000
   9065 C          39.1338   21.1017   14.5381 C.ar    1  UNL1        0.0000
   9066 C          27.9870   27.2020   25.1911 C.ar    1  UNL1        0.0000
   9067 C          42.2342   27.8087   14.4164 C.3     1  UNL1        0.0000
   9068 C          22.9528   21.7805   25.0296 C.ar    1  UNL1        0.0000
   9069 C          37.6385   20.7362   25.0441 C.3     1  UNL1        0.0000
   9070 C          27.5234   28.8459   14.3755 C.ar    1  UNL1        0.0000
   9071 C          34.4763   13.9643   25.1932 C.ar    1  UNL1        0.0000
   9072 C          32.6385   34.3136   14.5627 C.ar    1  UNL1        0.0000
   9073 N          32.6936   33.7147   15.8009 N.pl3   1  UNL1        0.0000
   9074 N          37.0595   20.5533   23.8051 N.3     1  UNL1        0.0000
   9075 N          38.4491   24.9734   20.9283 N.3     1  UNL1        0.0000
   9076 N          36.5520   16.2367   22.5752 N.pl3   1  UNL1        0.0000
   9077 O          37.7064   25.2616   18.3612 O.2     1  UNL1        0.0000
   9078 O          27.2826   22.0271   21.2514 O.3     1  UNL1        0.0000
   9079 O          34.5328   17.8941   22.9731 O.3     1  UNL1        0.0000
   9080 O          31.0801   30.3427   16.6634 O.3     1  UNL1        0.0000
   9081 O          31.9164   28.9558   18.2495 O.3     1  UNL1        0.0000
   9082 O          32.9809   18.1381   21.3465 O.3     1  UNL1        0.0000
   9083 O          39.2946   24.9373   16.7836 O.2     1  UNL1        0.0000
   9084 O          26.4716   23.4142   22.8494 O.3     1  UNL1        0.0000
   9085 O          36.6221   24.6824   15.7846 O.3     1  UNL1        0.0000
   9086 O          28.9758   22.5410   23.3497 O.3     1  UNL1        0.0000
   9087 O          37.5608   26.9697   16.2346 O.3     1  UNL1        0.0000
   9088 O          27.2237   20.8163   23.8424 O.3     1  UNL1        0.0000
   9089 O          31.8302   17.6084   23.9371 O.3     1  UNL1        0.0000
   9090 O          33.5986   29.5038   16.1652 O.3     1  UNL1        0.0000
   9091 O          32.7841   19.8699   23.4729 O.3     1  UNL1        0.0000
   9092 O          31.8924   27.7467   15.6478 O.3     1  UNL1        0.0000
   9093 O          34.2014   16.7541   25.2392 O.3     1  UNL1        0.0000
   9094 O          32.4489   31.4274   14.3912 O.3     1  UNL1        0.0000
   9095 O          35.0035   19.5423   25.2340 O.2     1  UNL1        0.0000
   9096 O          30.2129   29.5917   14.3311 O.3     1  UNL1        0.0000
   9097 O          39.7417   26.6169   14.3773 O.2     1  UNL1        0.0000
   9098 O          25.5874   22.6565   25.1651 O.3     1  UNL1        0.0000
   9099 O          38.9462   23.8626   14.4067 O.3     1  UNL1        0.0000
   9100 O          27.8556   24.4388   25.2464 O.3     1  UNL1        0.0000
   9101 O          34.8138   27.0739   16.2857 O.3     1  UNL1        0.0000
   9102 O          30.1119   20.0700   23.2667 O.3     1  UNL1        0.0000
   9103 O          37.2679   25.8487   13.3529 O.3     1  UNL1        0.0000
   9104 O          32.7003   28.9508   13.1862 O.3     1  UNL1        0.0000
   9105 H          33.9388   21.8745   21.6733 H       1  UNL1        0.0000
   9106 H          30.0172   16.0953   20.0257 H       1  UNL1        0.0000
   9107 H          34.6970   30.7893   18.8981 H      49  UNL49       0.0000
   9108 H          35.0470   23.6144   20.2426 H       1  UNL1        0.0000
   9109 H          30.1032   23.6567   20.8602 H       1  UNL1        0.0000
   9110 H          26.5192   18.5968   19.9241 H       1  UNL1        0.0000
   9111 H          31.4757   21.8898   21.9290 H       1  UNL1        0.0000
   9112 H          31.2173   25.4163   19.4640 H       1  UNL1        0.0000
   9113 H          35.8008   28.6133   18.4578 H      49  UNL49       0.0000
   9114 H          22.2073   28.8466   18.9002 H       1  UNL1        0.0000
   9115 C          33.1941   24.6082   19.7650 C.ar    1  UNL1        0.0000
   9116 C          31.9594   22.6549   21.3239 C.ar    1  UNL1        0.0000
   9117 C          36.3719   29.4268   18.9056 C.2    49  UNL49       0.0000
   9118 C          28.3404   17.4503   20.0409 C.ar    1  UNL1        0.0000
   9119 C          31.7980   24.6337   19.9468 C.ar    1  UNL1        0.0000
   9120 C          33.3498   22.6402   21.1718 C.ar    1  UNL1        0.0000
   9121 C          35.7458   30.6533   19.1566 C.2    49  UNL49       0.0000
   9122 C          28.9692   16.2226   19.7631 C.ar    1  UNL1        0.0000
   9123 C          37.7250   29.2405   19.2099 C.3    49  UNL49       0.0000
   9124 C          26.9870   17.6392   19.7059 C.ar    1  UNL1        0.0000
   9125 C          33.9689   23.6123   20.3858 C.ar    1  UNL1        0.0000
   9126 C          31.1828   23.6511   20.7199 C.ar    1  UNL1        0.0000
   9127 O          35.0711   25.4628   18.5647 O.3     1  UNL1        0.0000
   9128 O          28.4498   19.5841   21.0978 O.3     1  UNL1        0.0000
   9129 O          30.2741   18.2644   21.1678 O.3     1  UNL1        0.0000
   9130 O          33.1039   26.5426   18.3870 O.3     1  UNL1        0.0000
   9131 N          36.1408   30.8882   38.3887 N.pl3  49  UNL49       0.0000
   9132 N          36.6039   30.1560   40.3926 N.pl3  49  UNL49       0.0000
   9133 C          36.7610   29.6581   38.2389 C.2    49  UNL49       0.0000
   9134 C          37.0516   29.2000   39.4965 C.2    49  UNL49       0.0000
   9135 C          37.9186   31.2072   42.2349 C.3    49  UNL49       0.0000
   9136 C          35.7661   31.8028   37.3031 C.3    49  UNL49       0.0000
   9137 C          36.0604   31.1708   39.6983 C.3    49  UNL49       0.0000
   9138 C          36.8575   30.1795   41.8497 C.3    49  UNL49       0.0000
   9139 H          37.0176   29.2525   37.2701 H      49  UNL49       0.0000
   9140 H          37.5521   28.2981   39.8231 H      49  UNL49       0.0000
   9141 H          38.8799   30.9833   41.7598 H      49  UNL49       0.0000
   9142 H          36.6452   31.9486   36.6663 H      49  UNL49       0.0000
   9143 H          37.6287   32.2197   41.9279 H      49  UNL49       0.0000
   9144 H          34.9459   31.3595   36.7333 H      49  UNL49       0.0000
   9145 H          38.0426   31.1946   43.3251 H      49  UNL49       0.0000
   9146 H          37.1769   29.1653   42.1224 H      49  UNL49       0.0000
   9147 H          35.4722   32.7565   37.7481 H      49  UNL49       0.0000
   9148 H          35.6886   32.0972   40.1119 H      49  UNL49       0.0000
   9149 H          35.8958   30.3706   42.3388 H      49  UNL49       0.0000
   9150 N          38.9503   33.9210   37.9421 N.3    49  UNL49       0.0000
   9151 C          38.8366   35.3021   40.3537 C.3    49  UNL49       0.0000
   9152 C          41.1404   32.4153   38.1300 C.3    49  UNL49       0.0000
   9153 O          37.6042   35.9913   38.1150 O.2    49  UNL49       0.0000
   9154 O          36.7954   33.9783   39.3814 O.2    49  UNL49       0.0000
   9155 O          38.9757   31.6339   36.8738 O.2    49  UNL49       0.0000
   9156 O          38.9334   31.7401   39.3824 O.2    49  UNL49       0.0000
   9157 F          39.8674   36.1254   40.0468 F      49  UNL49       0.0000
   9158 F          41.5978   33.2026   39.1306 F      49  UNL49       0.0000
   9159 F          39.3431   34.2380   41.0327 F      49  UNL49       0.0000
   9160 F          37.9760   35.9661   41.1797 F      49  UNL49       0.0000
   9161 F          41.6283   32.8756   36.9419 F      49  UNL49       0.0000
   9162 F          41.6278   31.1606   38.3170 F      49  UNL49       0.0000
   9163 S          37.9028   34.7552   38.8202 S.O2   49  UNL49       0.0000
   9164 S          39.2789   32.3588   38.1062 S.O2   49  UNL49       0.0000
   9165 TI         22.8395   15.6501   37.5913 Ti      1  UNL1        0.0000
   9166 TI         33.6700   18.5313   28.2265 Ti      1  UNL1        0.0000
   9167 TI         26.9362   11.7139   35.7713 Ti      1  UNL1        0.0000
   9168 TI         28.4474   20.8760   29.9983 Ti      1  UNL1        0.0000
   9169 TI         27.4488   22.5544   28.0939 Ti      1  UNL1        0.0000
   9170 TI         28.8244   11.4596   37.7247 Ti      1  UNL1        0.0000
   9171 TI         23.7887   13.9142   35.6998 Ti      1  UNL1        0.0000
   9172 TI         31.6822   18.8339   30.0739 Ti      1  UNL1        0.0000
   9173 H          23.3414   19.5472   37.3718 H       1  UNL1        0.0000
   9174 H          34.4788   14.6253   28.5472 H       1  UNL1        0.0000
   9175 H          18.8796   14.8935   37.2088 H       1  UNL1        0.0000
   9176 H          37.0521   20.5356   28.4271 H       1  UNL1        0.0000
   9177 H          29.8000    7.4250   37.3387 H       1  UNL1        0.0000
   9178 H          23.3903   21.9645   28.4159 H       1  UNL1        0.0000
   9179 H          27.9433   20.9176   26.2208 H       1  UNL1        0.0000
   9180 H          31.7945   18.2886   26.5265 H       1  UNL1        0.0000
   9181 H          29.3343   10.7925   32.2136 H       1  UNL1        0.0000
   9182 H          26.7240   22.7131   33.6172 H       1  UNL1        0.0000
   9183 H          19.7161   17.3028   35.3439 H       1  UNL1        0.0000
   9184 H          36.4248   16.4470   30.5325 H       1  UNL1        0.0000
   9185 H          22.0172   15.8554   32.0101 H       1  UNL1        0.0000
   9186 H          24.3488   24.3822   30.4471 H       1  UNL1        0.0000
   9187 H          27.8411   25.6572   28.9494 H       1  UNL1        0.0000
   9188 H          34.3210   12.6064   29.7496 H       1  UNL1        0.0000
   9189 H          30.5400   20.5562   28.6596 H       1  UNL1        0.0000
   9190 H          25.8555   13.5623   37.0649 H       1  UNL1        0.0000
   9191 H          33.0592   13.3944   36.1143 H       1  UNL1        0.0000
   9192 H          31.5780   12.9254   36.8617 H       1  UNL1        0.0000
   9193 H          33.6333   17.8281   35.0154 H       1  UNL1        0.0000
   9194 H          33.0636   18.1866   33.3969 H       1  UNL1        0.0000
   9195 H          32.5703    8.4396   35.9243 H       1  UNL1        0.0000
   9196 H          31.2912    9.5402   36.3817 H       1  UNL1        0.0000
   9197 C          34.2480   17.7901   31.0900 C.2     1  UNL1        0.0000
   9198 C          21.8790   15.9115   34.7443 C.3     1  UNL1        0.0000
   9199 C          29.5167   10.7032   34.8466 C.3     1  UNL1        0.0000
   9200 C          26.5113   22.8466   30.9576 C.3     1  UNL1        0.0000
   9201 C          35.1441   17.1858   32.0852 C.2     1  UNL1        0.0000
   9202 C          20.9471   16.5365   33.7672 C.ar    1  UNL1        0.0000
   9203 C          30.4569   10.0889   33.8994 C.ar    1  UNL1        0.0000
   9204 C          25.6215   23.4934   31.9574 C.ar    1  UNL1        0.0000
   9205 C          34.8953   17.2607   33.4916 C.3     1  UNL1        0.0000
   9206 C          21.1635   16.4165   32.3792 C.ar    1  UNL1        0.0000
   9207 C          31.5864    9.3286   34.3525 C.ar    1  UNL1        0.0000
   9208 C          24.5267   24.2663   31.5125 C.ar    1  UNL1        0.0000
   9209 C          25.8760   23.3226   33.3123 C.ar    1  UNL1        0.0000
   9210 C          30.2092   10.2210   32.5155 C.ar    1  UNL1        0.0000
   9211 C          36.2777   16.4868   31.6095 C.3     1  UNL1        0.0000
   9212 C          19.8469   17.2289   34.2659 C.ar    1  UNL1        0.0000
   9213 C          34.4598   14.7043   26.4031 C.ar    1  UNL1        0.0000
   9214 C          27.9901   26.4959   26.4281 C.ar    1  UNL1        0.0000
   9215 C          36.9442   20.4675   26.2771 C.2     1  UNL1        0.0000
   9216 C          23.5859   22.0099   26.2577 C.ar    1  UNL1        0.0000
   9217 C          29.1941   18.5329   31.9629 C.3     1  UNL1        0.0000
   9218 C          24.4380   11.4385   33.8810 C.3     1  UNL1        0.0000
   9219 C          34.3240   16.1592   26.3799 C.3     1  UNL1        0.0000
   9220 C          27.8973   25.0624   26.3906 C.3     1  UNL1        0.0000
   9221 C          35.6464   19.8506   26.3239 C.2     1  UNL1        0.0000
   9222 C          24.9882   22.4242   26.2821 C.3     1  UNL1        0.0000
   9223 C          34.4992   14.0352   27.6327 C.ar    1  UNL1        0.0000
   9224 C          23.3523   20.1356   38.2857 C.ar    1  UNL1        0.0000
   9225 C          37.5995   20.7423   27.5110 C.3     1  UNL1        0.0000
   9226 C          18.3181   14.7141   38.1242 C.ar    1  UNL1        0.0000
   9227 C          33.0039   13.6697   38.1387 C.3     1  UNL1        0.0000
   9228 C          22.8887   21.7795   27.4701 C.ar    1  UNL1        0.0000
   9229 C          29.8417    6.8979   38.2878 C.ar    1  UNL1        0.0000
   9230 C          28.0039   27.2471   27.6574 C.ar    1  UNL1        0.0000
   9231 N          28.0589   26.6483   28.8955 N.pl3   1  UNL1        0.0000
   9232 N          32.4249   13.4869   36.8997 N.3     1  UNL1        0.0000
   9233 N          33.8144   17.9069   34.0229 N.3     1  UNL1        0.0000
   9234 N          31.9174    9.1703   35.6699 N.pl3   1  UNL1        0.0000
   9235 O          33.0717   18.1952   31.4558 O.2     1  UNL1        0.0000
   9236 O          22.6480   14.9606   34.3460 O.3     1  UNL1        0.0000
   9237 O          29.8982   10.8277   36.0677 O.3     1  UNL1        0.0000
   9238 O          26.4454   23.2762   29.7580 O.3     1  UNL1        0.0000
   9239 O          27.2817   21.8893   31.3441 O.3     1  UNL1        0.0000
   9240 O          28.3463   11.0717   34.4411 O.3     1  UNL1        0.0000
   9241 O          34.6599   17.8708   29.8783 O.2     1  UNL1        0.0000
   9242 O          21.8370   16.3477   35.9440 O.3     1  UNL1        0.0000
   9243 O          31.9874   17.6160   28.8792 O.3     1  UNL1        0.0000
   9244 O          24.3412   15.4746   36.4443 O.3     1  UNL1        0.0000
   9245 O          32.9262   19.9033   29.3292 O.3     1  UNL1        0.0000
   9246 O          22.5890   13.7499   36.9370 O.3     1  UNL1        0.0000
   9247 O          27.1955   10.5420   37.0317 O.3     1  UNL1        0.0000
   9248 O          28.9640   22.4374   29.2598 O.3     1  UNL1        0.0000
   9249 O          28.1495   12.8034   36.5675 O.3     1  UNL1        0.0000
   9250 O          27.2577   20.6803   28.7424 O.3     1  UNL1        0.0000
   9251 O          29.5667    9.6877   38.3338 O.3     1  UNL1        0.0000
   9252 O          27.8142   24.3610   27.4858 O.3     1  UNL1        0.0000
   9253 O          30.3689   12.4759   38.3287 O.2     1  UNL1        0.0000
   9254 O          25.5783   22.5252   27.4257 O.3     1  UNL1        0.0000
   9255 O          35.1071   19.5505   27.4719 O.2     1  UNL1        0.0000
   9256 O          20.9527   15.5901   38.2597 O.3     1  UNL1        0.0000
   9257 O          34.3115   16.7961   27.5013 O.3     1  UNL1        0.0000
   9258 O          23.2209   17.3724   38.3410 O.3     1  UNL1        0.0000
   9259 O          30.1792   20.0074   29.3803 O.3     1  UNL1        0.0000
   9260 O          25.4773   13.0036   36.3613 O.3     1  UNL1        0.0000
   9261 O          32.6333   18.7823   26.4475 O.3     1  UNL1        0.0000
   9262 O          28.0657   21.8844   26.2808 O.3     1  UNL1        0.0000
   9263 H          29.3042   14.8081   34.7679 H       1  UNL1        0.0000
   9264 H          25.3825    9.0289   33.1203 H       1  UNL1        0.0000
   9265 H          30.0624   23.7228   31.9927 H      49  UNL49       0.0000
   9266 H          30.4123   16.5479   33.3372 H       1  UNL1        0.0000
   9267 H          25.4686   16.5903   33.9548 H       1  UNL1        0.0000
   9268 H          21.8846   11.5303   33.0187 H       1  UNL1        0.0000
   9269 H          26.8410   14.8234   35.0236 H       1  UNL1        0.0000
   9270 H          26.5827   18.3499   32.5587 H       1  UNL1        0.0000
   9271 H          31.1661   21.5468   31.5524 H      49  UNL49       0.0000
   9272 H          17.5726   21.7802   31.9948 H       1  UNL1        0.0000
   9273 C          28.5594   17.5418   32.8596 C.ar    1  UNL1        0.0000
   9274 C          27.3247   15.5885   34.4185 C.ar    1  UNL1        0.0000
   9275 C          31.7372   22.3604   32.0002 C.2    49  UNL49       0.0000
   9276 C          23.7058   10.3838   33.1355 C.ar    1  UNL1        0.0000
   9277 C          27.1633   17.5673   33.0414 C.ar    1  UNL1        0.0000
   9278 C          28.7151   15.5738   34.2664 C.ar    1  UNL1        0.0000
   9279 C          31.1112   23.5868   32.2512 C.2    49  UNL49       0.0000
   9280 C          24.3346    9.1562   32.8577 C.ar    1  UNL1        0.0000
   9281 C          33.0904   22.1741   32.3045 C.3    49  UNL49       0.0000
   9282 C          22.3524   10.5728   32.8005 C.ar    1  UNL1        0.0000
   9283 C          29.3342   16.5458   33.4804 C.ar    1  UNL1        0.0000
   9284 C          26.5482   16.5846   33.8145 C.ar    1  UNL1        0.0000
   9285 O          30.4365   18.3963   31.6593 O.3     1  UNL1        0.0000
   9286 O          23.8151   12.5176   34.1924 O.3     1  UNL1        0.0000
   9287 O          25.6394   11.1979   34.2625 O.3     1  UNL1        0.0000
   9288 O          28.4692   19.4762   31.4816 O.3     1  UNL1        0.0000
   9289 N          31.5062   23.8218   51.4833 N.pl3  49  UNL49       0.0000
   9290 N          31.9693   23.0896   53.4872 N.pl3  49  UNL49       0.0000
   9291 C          32.1264   22.5917   51.3335 C.2    49  UNL49       0.0000
   9292 C          32.4170   22.1335   52.5912 C.2    49  UNL49       0.0000
   9293 C          33.2839   24.1408   55.3295 C.3    49  UNL49       0.0000
   9294 C          31.1314   24.7364   50.3977 C.3    49  UNL49       0.0000
   9295 C          31.4257   24.1043   52.7929 C.3    49  UNL49       0.0000
   9296 C          32.2229   23.1130   54.9443 C.3    49  UNL49       0.0000
   9297 H          32.3830   22.1860   50.3647 H      49  UNL49       0.0000
   9298 H          32.9175   21.2316   52.9177 H      49  UNL49       0.0000
   9299 H          34.2453   23.9169   54.8544 H      49  UNL49       0.0000
   9300 H          32.0106   24.8822   49.7609 H      49  UNL49       0.0000
   9301 H          32.9941   25.1532   55.0225 H      49  UNL49       0.0000
   9302 H          30.3112   24.2930   49.8279 H      49  UNL49       0.0000
   9303 H          33.4080   24.1282   56.4197 H      49  UNL49       0.0000
   9304 H          32.5422   22.0989   55.2170 H      49  UNL49       0.0000
   9305 H          30.8376   25.6901   50.8427 H      49  UNL49       0.0000
   9306 H          31.0539   25.0307   53.2065 H      49  UNL49       0.0000
   9307 H          31.2612   23.3041   55.4334 H      49  UNL49       0.0000
   9308 N          34.3157   26.8545   51.0367 N.3    49  UNL49       0.0000
   9309 C          34.2019   28.2356   53.4483 C.3    49  UNL49       0.0000
   9310 C          36.5058   25.3488   51.2246 C.3    49  UNL49       0.0000
   9311 O          32.9695   28.9249   51.2096 O.2    49  UNL49       0.0000
   9312 O          32.1608   26.9119   52.4761 O.2    49  UNL49       0.0000
   9313 O          34.3411   24.5674   49.9685 O.2    49  UNL49       0.0000
   9314 O          34.2987   24.6737   52.4770 O.2    49  UNL49       0.0000
   9315 F          35.2327   29.0590   53.1414 F      49  UNL49       0.0000
   9316 F          36.9631   26.1362   52.2252 F      49  UNL49       0.0000
   9317 F          34.7085   27.1716   54.1273 F      49  UNL49       0.0000
   9318 F          33.3414   28.8996   54.2743 F      49  UNL49       0.0000
   9319 F          36.9937   25.8092   50.0365 F      49  UNL49       0.0000
   9320 F          36.9932   24.0941   51.4116 F      49  UNL49       0.0000
   9321 S          33.2682   27.6888   51.9148 S.O2   49  UNL49       0.0000
   9322 S          34.6443   25.2923   51.2008 S.O2   49  UNL49       0.0000
   9323 TI         18.2049    8.5837   50.6859 Ti      1  UNL1        0.0000
   9324 TI         29.0354   11.4649   41.3211 Ti      1  UNL1        0.0000
   9325 TI         22.3016    4.6475   48.8659 Ti      1  UNL1        0.0000
   9326 TI         23.8128   13.8096   43.0929 Ti      1  UNL1        0.0000
   9327 TI         22.8142   15.4879   41.1885 Ti      1  UNL1        0.0000
   9328 TI         24.1898    4.3931   50.8193 Ti      1  UNL1        0.0000
   9329 TI         19.1541    6.8478   48.7944 Ti      1  UNL1        0.0000
   9330 TI         27.0475   11.7674   43.1685 Ti      1  UNL1        0.0000
   9331 H          18.7068   12.4808   50.4664 H      49  UNL49       0.0000
   9332 H          29.8441    7.5588   41.6418 H       1  UNL1        0.0000
   9333 H          14.2450    7.8271   50.3034 H      49  UNL49       0.0000
   9334 H          32.4175   13.4692   41.5217 H       1  UNL1        0.0000
   9335 H          25.1654    0.3586   50.4334 H      49  UNL49       0.0000
   9336 H          18.7557   14.8980   41.5105 H       1  UNL1        0.0000
   9337 H          23.3086   13.8511   39.3154 H       1  UNL1        0.0000
   9338 H          27.1598   11.2222   39.6211 H       1  UNL1        0.0000
   9339 H          24.6997    3.7260   45.3082 H       1  UNL1        0.0000
   9340 H          22.0893   15.6466   46.7118 H       1  UNL1        0.0000
   9341 H          15.0815   10.2364   48.4385 H       1  UNL1        0.0000
   9342 H          31.7901    9.3806   43.6271 H       1  UNL1        0.0000
   9343 H          17.3826    8.7890   45.1047 H       1  UNL1        0.0000
   9344 H          19.7141   17.3158   43.5417 H       1  UNL1        0.0000
   9345 H          23.2064   18.5908   42.0440 H       1  UNL1        0.0000
   9346 H          29.6863    5.5400   42.8443 H       1  UNL1        0.0000
   9347 H          25.9054   13.4897   41.7543 H       1  UNL1        0.0000
   9348 H          21.2209    6.4959   50.1595 H       1  UNL1        0.0000
   9349 H          28.4245    6.3280   49.2089 H      49  UNL49       0.0000
   9350 H          26.9434    5.8589   49.9563 H      49  UNL49       0.0000
   9351 H          28.9986   10.7616   48.1100 H       1  UNL1        0.0000
   9352 H          28.4289   11.1202   46.4915 H       1  UNL1        0.0000
   9353 H          27.9357    1.3732   49.0189 H       1  UNL1        0.0000
   9354 H          26.6566    2.4737   49.4763 H       1  UNL1        0.0000
   9355 C          29.6134   10.7237   44.1846 C.2     1  UNL1        0.0000
   9356 C          17.2443    8.8451   47.8389 C.3     1  UNL1        0.0000
   9357 C          24.8821    3.6368   47.9412 C.3     1  UNL1        0.0000
   9358 C          21.8766   15.7801   44.0522 C.3     1  UNL1        0.0000
   9359 C          30.5094   10.1193   45.1798 C.2     1  UNL1        0.0000
   9360 C          16.3124    9.4701   46.8618 C.ar    1  UNL1        0.0000
   9361 C          25.8223    3.0224   46.9940 C.ar    1  UNL1        0.0000
   9362 C          20.9868   16.4269   45.0520 C.ar    1  UNL1        0.0000
   9363 C          30.2606   10.1943   46.5862 C.3     1  UNL1        0.0000
   9364 C          16.5288    9.3501   45.4738 C.ar    1  UNL1        0.0000
   9365 C          26.9517    2.2621   47.4471 C.ar    1  UNL1        0.0000
   9366 C          19.8921   17.1999   44.6071 C.ar    1  UNL1        0.0000
   9367 C          21.2413   16.2562   46.4069 C.ar    1  UNL1        0.0000
   9368 C          25.5746    3.1546   45.6101 C.ar    1  UNL1        0.0000
   9369 C          31.6431    9.4204   44.7041 C.3     1  UNL1        0.0000
   9370 C          15.2123   10.1625   47.3605 C.ar    1  UNL1        0.0000
   9371 C          29.8252    7.6379   39.4977 C.ar    1  UNL1        0.0000
   9372 C          23.3554   19.4295   39.5227 C.ar    1  UNL1        0.0000
   9373 C          32.3096   13.4010   39.3717 C.2     1  UNL1        0.0000
   9374 C          18.9513   14.9435   39.3523 C.ar    1  UNL1        0.0000
   9375 C          24.5595   11.4664   45.0575 C.3     1  UNL1        0.0000
   9376 C          19.8034    4.3721   46.9756 C.3     1  UNL1        0.0000
   9377 C          29.6893    9.0928   39.4745 C.3     1  UNL1        0.0000
   9378 C          23.2627   17.9960   39.4852 C.3     1  UNL1        0.0000
   9379 C          31.0118   12.7842   39.4185 C.2     1  UNL1        0.0000
   9380 C          20.3536   15.3578   39.3767 C.3     1  UNL1        0.0000
   9381 C          29.8645    6.9688   40.7274 C.ar    1  UNL1        0.0000
   9382 C          18.7177   13.0692   51.3803 C.2    49  UNL49       0.0000
   9383 C          32.9649   13.6758   40.6056 C.3     1  UNL1        0.0000
   9384 C          13.6835    7.6477   51.2188 C.2    49  UNL49       0.0000
   9385 C          28.3693    6.6033   51.2333 C.3    49  UNL49       0.0000
   9386 C          18.2541   14.7130   40.5648 C.ar    1  UNL1        0.0000
   9387 C          25.2070   -0.1686   51.3824 C.2    49  UNL49       0.0000
   9388 C          23.3692   20.1807   40.7520 C.ar    1  UNL1        0.0000
   9389 N          23.4243   19.5819   41.9901 N.pl3   1  UNL1        0.0000
   9390 N          27.7902    6.4205   49.9943 N.3    49  UNL49       0.0000
   9391 N          29.1798   10.8405   47.1175 N.3     1  UNL1        0.0000
   9392 N          27.2827    2.1039   48.7645 N.pl3   1  UNL1        0.0000
   9393 O          28.4371   11.1287   44.5504 O.2     1  UNL1        0.0000
   9394 O          18.0133    7.8942   47.4406 O.3     1  UNL1        0.0000
   9395 O          25.2635    3.7613   49.1623 O.3     1  UNL1        0.0000
   9396 O          21.8108   16.2098   42.8526 O.3     1  UNL1        0.0000
   9397 O          22.6471   14.8229   44.4387 O.3     1  UNL1        0.0000
   9398 O          23.7116    4.0052   47.5357 O.3     1  UNL1        0.0000
   9399 O          30.0253   10.8044   42.9729 O.2     1  UNL1        0.0000
   9400 O          17.2023    9.2813   49.0386 O.3     1  UNL1        0.0000
   9401 O          27.3528   10.5495   41.9739 O.3     1  UNL1        0.0000
   9402 O          19.7065    8.4081   49.5389 O.3     1  UNL1        0.0000
   9403 O          28.2915   12.8368   42.4238 O.3     1  UNL1        0.0000
   9404 O          17.9544    6.6835   50.0316 O.3     1  UNL1        0.0000
   9405 O          22.5609    3.4755   50.1263 O.3     1  UNL1        0.0000
   9406 O          24.3293   15.3709   42.3544 O.3     1  UNL1        0.0000
   9407 O          23.5148    5.7370   49.6622 O.3     1  UNL1        0.0000
   9408 O          22.6231   13.6138   41.8370 O.3     1  UNL1        0.0000
   9409 O          24.9321    2.6213   51.4284 O.3     1  UNL1        0.0000
   9410 O          23.1796   17.2945   40.5804 O.3     1  UNL1        0.0000
   9411 O          25.7342    5.4095   51.4233 O.3     1  UNL1        0.0000
   9412 O          20.9436   15.4588   40.5203 O.3     1  UNL1        0.0000
   9413 O          30.4724   12.4840   40.5665 O.2     1  UNL1        0.0000
   9414 O          16.3181    8.5236   51.3543 O.3     1  UNL1        0.0000
   9415 O          29.6769    9.7297   40.5959 O.3     1  UNL1        0.0000
   9416 O          18.5863   10.3060   51.4356 O.3     1  UNL1        0.0000
   9417 O          25.5445   12.9410   42.4749 O.3     1  UNL1        0.0000
   9418 O          20.8426    5.9372   49.4559 O.3     1  UNL1        0.0000
   9419 O          27.9987   11.7159   39.5421 O.3     1  UNL1        0.0000
   9420 O          23.4310   14.8179   39.3754 O.3     1  UNL1        0.0000
   9421 H          24.6695    7.7416   47.8625 H       1  UNL1        0.0000
   9422 H          20.7479    1.9625   46.2149 H       1  UNL1        0.0000
   9423 H          25.4277   16.6564   45.0873 H      49  UNL49       0.0000
   9424 H          25.7777    9.4815   46.4318 H       1  UNL1        0.0000
   9425 H          20.8339    9.5239   47.0494 H       1  UNL1        0.0000
   9426 H          17.2499    4.4639   46.1133 H       1  UNL1        0.0000
   9427 H          22.2064    7.7570   48.1182 H       1  UNL1        0.0000
   9428 H          21.9480   11.2834   45.6533 H       1  UNL1        0.0000
   9429 H          26.5315   14.4804   44.6470 H      49  UNL49       0.0000
   9430 H          12.9380   14.7138   45.0894 H       1  UNL1        0.0000
   9431 C          23.9248   10.4753   45.9542 C.ar    1  UNL1        0.0000
   9432 C          22.6901    8.5220   47.5131 C.ar    1  UNL1        0.0000
   9433 C          27.1026   15.2939   45.0948 C.2    49  UNL49       0.0000
   9434 C          19.0712    3.3174   46.2302 C.ar    1  UNL1        0.0000
   9435 C          22.5287   10.5009   46.1360 C.ar    1  UNL1        0.0000
   9436 C          24.0805    8.5074   47.3610 C.ar    1  UNL1        0.0000
   9437 C          26.4765   16.5204   45.3458 C.2    49  UNL49       0.0000
   9438 C          19.6999    2.0898   45.9524 C.ar    1  UNL1        0.0000
   9439 C          28.4558   15.1076   45.3991 C.3    49  UNL49       0.0000
   9440 C          17.7177    3.5064   45.8951 C.ar    1  UNL1        0.0000
   9441 C          24.6996    9.4794   46.5750 C.ar    1  UNL1        0.0000
   9442 C          21.9135    9.5182   46.9091 C.ar    1  UNL1        0.0000
   9443 O          25.8018   11.3299   44.7539 O.3     1  UNL1        0.0000
   9444 O          19.1805    5.4512   47.2871 O.3     1  UNL1        0.0000
   9445 O          21.0048    4.1315   47.3571 O.3     1  UNL1        0.0000
   9446 O          23.8346   12.4097   44.5762 O.3     1  UNL1        0.0000
   9447 N          26.8715   16.7554   64.5779 N.pl3  49  UNL49       0.0000
   9448 N          27.3346   16.0232   66.5818 N.pl3  49  UNL49       0.0000
   9449 C          27.4917   15.5252   64.4281 C.2    49  UNL49       0.0000
   9450 C          27.7823   15.0671   65.6858 C.2    49  UNL49       0.0000
   9451 C          28.6493   17.0743   68.4241 C.3    49  UNL49       0.0000
   9452 C          26.4968   17.6699   63.4923 C.3    49  UNL49       0.0000
   9453 C          26.7911   17.0379   65.8875 C.3    49  UNL49       0.0000
   9454 C          27.5882   16.0466   68.0389 C.3    49  UNL49       0.0000
   9455 H          27.7483   15.1196   63.4593 H      49  UNL49       0.0000
   9456 H          28.2828   14.1652   66.0123 H      49  UNL49       0.0000
   9457 H          29.6106   16.8505   67.9490 H      49  UNL49       0.0000
   9458 H          27.3759   17.8157   62.8555 H      49  UNL49       0.0000
   9459 H          28.3594   18.0868   68.1171 H      49  UNL49       0.0000
   9460 H          25.6766   17.2266   62.9225 H      49  UNL49       0.0000
   9461 H          28.7734   17.0618   69.5144 H      49  UNL49       0.0000
   9462 H          27.9076   15.0325   68.3116 H      49  UNL49       0.0000
   9463 H          26.2029   18.6236   63.9373 H      49  UNL49       0.0000
   9464 H          26.4193   17.9643   66.3011 H      49  UNL49       0.0000
   9465 H          26.6265   16.2377   68.5280 H      49  UNL49       0.0000
   9466 N          29.6810   19.7881   64.1313 N.3    49  UNL49       0.0000
   9467 C          29.5673   21.1692   66.5429 C.3    49  UNL49       0.0000
   9468 C          31.8712   18.2824   64.3192 C.3    49  UNL49       0.0000
   9469 O          28.3349   21.8585   64.3042 O.2    49  UNL49       0.0000
   9470 O          27.5261   19.8455   65.5707 O.2    49  UNL49       0.0000
   9471 O          29.7064   17.5010   63.0631 O.2    49  UNL49       0.0000
   9472 O          29.6641   17.6072   65.5716 O.2    49  UNL49       0.0000
   9473 F          30.5981   21.9926   66.2360 F      49  UNL49       0.0000
   9474 F          32.3285   19.0698   65.3198 F      49  UNL49       0.0000
   9475 F          30.0738   20.1052   67.2219 F      49  UNL49       0.0000
   9476 F          28.7068   21.8332   67.3690 F      49  UNL49       0.0000
   9477 F          32.3590   18.7427   63.1311 F      49  UNL49       0.0000
   9478 F          32.3585   17.0277   64.5063 F      49  UNL49       0.0000
   9479 S          28.6336   20.6224   65.0094 S.O2   49  UNL49       0.0000
   9480 S          30.0096   18.2259   64.2954 S.O2   49  UNL49       0.0000
   9481 TI         25.5918   44.3955   11.3455 Ti      1  UNL1        0.0000
   9482 TI         36.4223   47.2767    1.9807 Ti      1  UNL1        0.0000
   9483 TI         29.6885   40.4593    9.5256 Ti      1  UNL1        0.0000
   9484 TI         31.1997   49.6214    3.7525 Ti      1  UNL1        0.0000
   9485 TI         30.2011   51.2997    1.8481 Ti      1  UNL1        0.0000
   9486 TI         31.5767   40.2050   11.4789 Ti      1  UNL1        0.0000
   9487 TI         26.5410   42.6596    9.4541 Ti      1  UNL1        0.0000
   9488 TI         34.4344   47.5793    3.8282 Ti      1  UNL1        0.0000
   9489 H          26.0937   48.2926   11.1261 H       1  UNL1        0.0000
   9490 H          37.2310   43.3707    2.3014 H       1  UNL1        0.0000
   9491 H          21.6319   43.6389   10.9631 H       1  UNL1        0.0000
   9492 H          39.8044   49.2810    2.1814 H       1  UNL1        0.0000
   9493 H          32.5523   36.1704   11.0930 H       1  UNL1        0.0000
   9494 H          26.1426   50.7098    2.1702 H       1  UNL1        0.0000
   9495 H          30.6955   49.6629   -0.0249 H       1  UNL1        0.0000
   9496 H          34.5467   47.0340    0.2808 H       1  UNL1        0.0000
   9497 H          32.0866   39.5378    5.9678 H       1  UNL1        0.0000
   9498 H          29.4762   51.4585    7.3715 H       1  UNL1        0.0000
   9499 H          22.4684   46.0482    9.0982 H       1  UNL1        0.0000
   9500 H          39.1770   45.1924    4.2867 H       1  UNL1        0.0000
   9501 H          24.7695   44.6008    5.7643 H       1  UNL1        0.0000
   9502 H          27.1010   53.1276    4.2014 H       1  UNL1        0.0000
   9503 H          30.5933   54.4026    2.7036 H       1  UNL1        0.0000
   9504 H          37.0732   41.3518    3.5039 H       1  UNL1        0.0000
   9505 H          33.2923   49.3016    2.4139 H       1  UNL1        0.0000
   9506 H          28.6078   42.3077   10.8192 H       1  UNL1        0.0000
   9507 H          35.8114   42.1398    9.8686 H       1  UNL1        0.0000
   9508 H          34.3303   41.6707   10.6159 H       1  UNL1        0.0000
   9509 H          36.3855   46.5734    8.7697 H       1  UNL1        0.0000
   9510 H          35.8158   46.9320    7.1512 H       1  UNL1        0.0000
   9511 H          35.3226   37.1850    9.6786 H       1  UNL1        0.0000
   9512 H          34.0435   38.2856   10.1360 H       1  UNL1        0.0000
   9513 C          37.0003   46.5355    4.8443 C.2     1  UNL1        0.0000
   9514 C          24.6312   44.6569    8.4985 C.3     1  UNL1        0.0000
   9515 C          32.2690   39.4486    8.6008 C.3     1  UNL1        0.0000
   9516 C          29.2635   51.5919    4.7119 C.3     1  UNL1        0.0000
   9517 C          37.8963   45.9312    5.8395 C.2     1  UNL1        0.0000
   9518 C          23.6993   45.2819    7.5215 C.ar    1  UNL1        0.0000
   9519 C          33.2092   38.8342    7.6537 C.ar    1  UNL1        0.0000
   9520 C          28.3737   52.2387    5.7117 C.2     1  UNL1        0.0000
   9521 C          37.6476   46.0061    7.2459 C.3     1  UNL1        0.0000
   9522 C          23.9157   45.1619    6.1334 C.ar    1  UNL1        0.0000
   9523 C          34.3386   38.0739    8.1067 C.ar    1  UNL1        0.0000
   9524 C          27.2790   53.0117    5.2668 C.3     1  UNL1        0.0000
   9525 C          28.6282   52.0680    7.0666 C.2     1  UNL1        0.0000
   9526 C          32.9615   38.9664    6.2697 C.ar    1  UNL1        0.0000
   9527 C          39.0300   45.2322    5.3638 C.3     1  UNL1        0.0000
   9528 C          22.5992   45.9743    8.0202 C.ar    1  UNL1        0.0000
   9529 C          37.2121   43.4497    0.1573 C.2     1  UNL1        0.0000
   9530 C          30.7423   55.2413    0.1823 C.2     1  UNL1        0.0000
   9531 C          39.6965   49.2128    0.0313 C.2     1  UNL1        0.0000
   9532 C          26.3382   50.7553    0.0119 C.2     1  UNL1        0.0000
   9533 C          31.9464   47.2783    5.7171 C.3     1  UNL1        0.0000
   9534 C          27.1903   40.1839    7.6353 C.3     1  UNL1        0.0000
   9535 C          37.0762   44.9046    0.1341 C.2     1  UNL1        0.0000
   9536 C          30.6496   53.8078    0.1448 C.2     1  UNL1        0.0000
   9537 C          38.3987   48.5960    0.0782 C.2     1  UNL1        0.0000
   9538 C          27.7405   51.1696    0.0364 C.2     1  UNL1        0.0000
   9539 C          37.2514   42.7806    1.3870 C.2     1  UNL1        0.0000
   9540 C          26.1046   48.8810   12.0400 C.3     1  UNL1        0.0000
   9541 C          40.3518   49.4876    1.2653 C.3     1  UNL1        0.0000
   9542 C          21.0704   43.4595   11.8785 C.ar    1  UNL1        0.0000
   9543 C          35.7562   42.4151   11.8929 C.3     1  UNL1        0.0000
   9544 C          25.6410   50.5249    1.2244 C.2     1  UNL1        0.0000
   9545 C          32.5939   35.6433   12.0421 C.ar    1  UNL1        0.0000
   9546 C          30.7561   55.9925    1.4116 C.3     1  UNL1        0.0000
   9547 N          30.8112   55.3937    2.6498 N.3     1  UNL1        0.0000
   9548 N          35.1771   42.2323   10.6540 N.3     1  UNL1        0.0000
   9549 N          36.5667   46.6523    7.7772 N.3     1  UNL1        0.0000
   9550 N          34.6696   37.9157    9.4241 N.pl3   1  UNL1        0.0000
   9551 O          35.8240   46.9406    5.2101 O.2     1  UNL1        0.0000
   9552 O          25.4002   43.7060    8.1002 O.3     1  UNL1        0.0000
   9553 O          32.6504   39.5731    9.8220 O.3     1  UNL1        0.0000
   9554 O          29.1977   52.0216    3.5123 O.3     1  UNL1        0.0000
   9555 O          30.0340   50.6347    5.0984 O.3     1  UNL1        0.0000
   9556 O          31.0986   39.8170    8.1953 O.3     1  UNL1        0.0000
   9557 O          37.4122   46.6162    3.6325 O.2     1  UNL1        0.0000
   9558 O          24.5892   45.0931    9.6982 O.3     1  UNL1        0.0000
   9559 O          34.7397   46.3614    2.6335 O.3     1  UNL1        0.0000
   9560 O          27.0934   44.2200   10.1986 O.3     1  UNL1        0.0000
   9561 O          35.6785   48.6486    3.0835 O.3     1  UNL1        0.0000
   9562 O          25.3413   42.4953   10.6913 O.3     1  UNL1        0.0000
   9563 O          29.9478   39.2873   10.7860 O.3     1  UNL1        0.0000
   9564 O          31.7162   51.1827    3.0141 O.3     1  UNL1        0.0000
   9565 O          30.9017   41.5488   10.3218 O.3     1  UNL1        0.0000
   9566 O          30.0100   49.4256    2.4966 O.3     1  UNL1        0.0000
   9567 O          32.3190   38.4331   12.0880 O.3     1  UNL1        0.0000
   9568 O          30.5665   53.1064    1.2400 O.2     1  UNL1        0.0000
   9569 O          33.1211   41.2213   12.0829 O.2     1  UNL1        0.0000
   9570 O          28.3305   51.2706    1.1800 O.2     1  UNL1        0.0000
   9571 O          37.8593   48.2958    1.2262 O.2     1  UNL1        0.0000
   9572 O          23.7050   44.3354   12.0140 O.3     1  UNL1        0.0000
   9573 O          37.0638   45.5415    1.2556 O.2     1  UNL1        0.0000
   9574 O          25.9732   46.1178   12.0953 O.2     1  UNL1        0.0000
   9575 O          32.9315   48.7528    3.1346 O.3     1  UNL1        0.0000
   9576 O          28.2295   41.7490   10.1156 O.3     1  UNL1        0.0000
   9577 O          35.3856   47.5277    0.2018 O.3     1  UNL1        0.0000
   9578 O          30.8179   50.6297    0.0350 O.3     1  UNL1        0.0000
   9579 H          32.0564   43.5535    8.5221 H       1  UNL1        0.0000
   9580 H          28.1348   37.7743    6.8746 H       1  UNL1        0.0000
   9581 H          32.8146   52.4682    5.7470 H      49  UNL49       0.0000
   9582 H          33.1646   45.2933    7.0915 H       1  UNL1        0.0000
   9583 H          28.2208   45.3357    7.7091 H       1  UNL1        0.0000
   9584 H          24.6369   40.2757    6.7729 H       1  UNL1        0.0000
   9585 H          29.5933   43.5688    8.7779 H       1  UNL1        0.0000
   9586 H          29.3349   47.0952    6.3129 H       1  UNL1        0.0000
   9587 H          33.9184   50.2922    5.3067 H      49  UNL49       0.0000
   9588 H          20.3249   50.5256    5.7491 H      49  UNL49       0.0000
   9589 C          31.3117   46.2871    6.6139 C.ar    1  UNL1        0.0000
   9590 C          30.0770   44.3339    8.1727 C.ar    1  UNL1        0.0000
   9591 C          34.4895   51.1058    5.7545 C.2    49  UNL49       0.0000
   9592 C          26.4581   39.1292    6.8898 C.ar    1  UNL1        0.0000
   9593 C          29.9156   46.3127    6.7957 C.ar    1  UNL1        0.0000
   9594 C          31.4674   44.3192    8.0207 C.ar    1  UNL1        0.0000
   9595 C          33.8634   52.3322    6.0054 C.2    49  UNL49       0.0000
   9596 C          27.0868   37.9016    6.6120 C.ar    1  UNL1        0.0000
   9597 C          35.8427   50.9195    6.0587 C.3    49  UNL49       0.0000
   9598 C          25.1046   39.3182    6.5547 C.ar    1  UNL1        0.0000
   9599 C          32.0865   45.2912    7.2346 C.ar    1  UNL1        0.0000
   9600 C          29.3004   45.3300    7.5688 C.ar    1  UNL1        0.0000
   9601 O          33.1888   47.1417    5.4136 O.3     1  UNL1        0.0000
   9602 O          26.5674   41.2630    7.9467 O.3     1  UNL1        0.0000
   9603 O          28.3917   39.9433    8.0167 O.3     1  UNL1        0.0000
   9604 O          31.2215   48.2215    5.2359 O.3     1  UNL1        0.0000
   9605 N          34.2584   52.5672   25.2375 N.pl3  49  UNL49       0.0000
   9606 N          34.7215   51.8350   27.2414 N.pl3  49  UNL49       0.0000
   9607 C          34.8787   51.3370   25.0878 C.2    49  UNL49       0.0000
   9608 C          35.1692   50.8789   26.3454 C.2    49  UNL49       0.0000
   9609 C          36.0362   52.8861   29.0838 C.3    49  UNL49       0.0000
   9610 C          33.8837   53.4818   24.1520 C.3    49  UNL49       0.0000
   9611 C          34.1780   52.8497   26.5472 C.3    49  UNL49       0.0000
   9612 C          34.9751   51.8584   28.6985 C.3    49  UNL49       0.0000
   9613 H          35.1352   50.9314   24.1189 H      49  UNL49       0.0000
   9614 H          35.6698   49.9770   26.6719 H      49  UNL49       0.0000
   9615 H          36.9975   52.6623   28.6087 H      49  UNL49       0.0000
   9616 H          34.7628   53.6275   23.5152 H      49  UNL49       0.0000
   9617 H          35.7464   53.8986   28.7768 H      49  UNL49       0.0000
   9618 H          33.0635   53.0384   23.5821 H      49  UNL49       0.0000
   9619 H          36.1603   52.8736   30.1740 H      49  UNL49       0.0000
   9620 H          35.2945   50.8443   28.9713 H      49  UNL49       0.0000
   9621 H          33.5899   54.4354   24.5969 H      49  UNL49       0.0000
   9622 H          33.8062   53.7761   26.9607 H      49  UNL49       0.0000
   9623 H          34.0135   52.0495   29.1876 H      49  UNL49       0.0000
   9624 N          37.0679   55.5999   24.7909 N.3    49  UNL49       0.0000
   9625 C          36.9542   56.9810   27.2025 C.3    49  UNL49       0.0000
   9626 C          39.2581   54.0942   24.9789 C.3    49  UNL49       0.0000
   9627 O          35.7218   57.6703   24.9639 O.2    49  UNL49       0.0000
   9628 O          34.9130   55.6573   26.2303 O.2    49  UNL49       0.0000
   9629 O          37.0934   53.3128   23.7227 O.2    49  UNL49       0.0000
   9630 O          37.0510   53.4190   26.2313 O.2    49  UNL49       0.0000
   9631 F          37.9850   57.8044   26.8956 F      49  UNL49       0.0000
   9632 F          39.7154   54.8816   25.9795 F      49  UNL49       0.0000
   9633 F          37.4607   55.9170   27.8816 F      49  UNL49       0.0000
   9634 F          36.0937   57.6450   28.0286 F      49  UNL49       0.0000
   9635 F          39.7459   54.5545   23.7907 F      49  UNL49       0.0000
   9636 F          39.7454   52.8395   25.1659 F      49  UNL49       0.0000
   9637 S          36.0205   56.4342   25.6691 S.O2   49  UNL49       0.0000
   9638 S          37.3965   54.0377   24.9551 S.O2   49  UNL49       0.0000
   9639 TI         20.9571   37.3291   24.4402 Ti      1  UNL1        0.0000
   9640 TI         31.7876   40.2103   15.0753 Ti      1  UNL1        0.0000
   9641 TI         25.0538   33.3929   22.6202 Ti      1  UNL1        0.0000
   9642 TI         26.5650   42.5550   16.8471 Ti      1  UNL1        0.0000
   9643 TI         25.5664   44.2333   14.9428 Ti      1  UNL1        0.0000
   9644 TI         26.9420   33.1385   24.5735 Ti      1  UNL1        0.0000
   9645 TI         21.9063   35.5932   22.5487 Ti      1  UNL1        0.0000
   9646 TI         29.7998   40.5128   16.9228 Ti      1  UNL1        0.0000
   9647 H          21.4590   41.2261   24.2207 H       1  UNL1        0.0000
   9648 H          32.5964   36.3042   15.3960 H       1  UNL1        0.0000
   9649 H          16.9972   36.5724   24.0577 H       1  UNL1        0.0000
   9650 H          35.1698   42.2146   15.2760 H       1  UNL1        0.0000
   9651 H          27.9176   29.1040   24.1876 H       1  UNL1        0.0000
   9652 H          21.5079   43.6434   15.2648 H       1  UNL1        0.0000
   9653 H          26.0609   42.5965   13.0697 H       1  UNL1        0.0000
   9654 H          29.9121   39.9676   13.3754 H       1  UNL1        0.0000
   9655 H          27.4519   32.4714   19.0624 H       1  UNL1        0.0000
   9656 H          24.8416   44.3920   20.4661 H       1  UNL1        0.0000
   9657 H          17.8337   38.9818   22.1928 H       1  UNL1        0.0000
   9658 H          34.5424   38.1259   17.3813 H       1  UNL1        0.0000
   9659 H          20.1348   37.5344   18.8589 H       1  UNL1        0.0000
   9660 H          22.4664   46.0612   17.2960 H       1  UNL1        0.0000
   9661 H          25.9587   47.3361   15.7982 H       1  UNL1        0.0000
   9662 H          32.4386   34.2854   16.5985 H       1  UNL1        0.0000
   9663 H          28.6576   42.2351   15.5085 H       1  UNL1        0.0000
   9664 H          23.9731   35.2413   23.9138 H       1  UNL1        0.0000
   9665 H          31.1768   35.0734   22.9632 H       1  UNL1        0.0000
   9666 H          29.6956   34.6043   23.7105 H       1  UNL1        0.0000
   9667 H          31.7509   39.5070   21.8643 H       1  UNL1        0.0000
   9668 H          31.1812   39.8656   20.2458 H       1  UNL1        0.0000
   9669 H          30.6880   30.1185   22.7732 H       1  UNL1        0.0000
   9670 H          29.4088   31.2191   23.2306 H       1  UNL1        0.0000
   9671 C          32.3657   39.4690   17.9389 C.2     1  UNL1        0.0000
   9672 C          19.9966   37.5904   21.5931 C.3     1  UNL1        0.0000
   9673 C          27.6343   32.3822   21.6955 C.3     1  UNL1        0.0000
   9674 C          24.6289   44.5255   17.8065 C.3     1  UNL1        0.0000
   9675 C          33.2617   38.8647   18.9341 C.2     1  UNL1        0.0000
   9676 C          19.0647   38.2155   20.6161 C.ar    1  UNL1        0.0000
   9677 C          28.5745   31.7678   20.7483 C.ar    1  UNL1        0.0000
   9678 C          23.7391   45.1723   18.8063 C.2     1  UNL1        0.0000
   9679 C          33.0129   38.9396   20.3405 C.3     1  UNL1        0.0000
   9680 C          19.2811   38.0955   19.2281 C.ar    1  UNL1        0.0000
   9681 C          29.7040   31.0075   21.2013 C.ar    1  UNL1        0.0000
   9682 C          22.6444   45.9453   18.3614 C.3     1  UNL1        0.0000
   9683 C          23.9936   45.0015   20.1612 C.2     1  UNL1        0.0000
   9684 C          28.3268   31.8999   19.3643 C.ar    1  UNL1        0.0000
   9685 C          34.3954   38.1657   18.4584 C.3     1  UNL1        0.0000
   9686 C          17.9645   38.9079   21.1148 C.ar    1  UNL1        0.0000
   9687 C          32.5774   36.3833   13.2519 C.ar    1  UNL1        0.0000
   9688 C          26.1077   48.1749   13.2769 C.2     1  UNL1        0.0000
   9689 C          35.0619   42.1464   13.1259 C.2     1  UNL1        0.0000
   9690 C          21.7035   43.6888   13.1065 C.ar    1  UNL1        0.0000
   9691 C          27.3117   40.2118   18.8117 C.3     1  UNL1        0.0000
   9692 C          22.5556   33.1174   20.7299 C.3     1  UNL1        0.0000
   9693 C          32.4416   37.8381   13.2287 C.3     1  UNL1        0.0000
   9694 C          26.0149   46.7414   13.2395 C.2     1  UNL1        0.0000
   9695 C          33.7640   41.5296   13.1728 C.2     1  UNL1        0.0000
   9696 C          23.1058   44.1032   13.1310 C.3     1  UNL1        0.0000
   9697 C          32.6168   35.7142   14.4816 C.ar    1  UNL1        0.0000
   9698 C          21.4699   41.8145   25.1346 C.3     1  UNL1        0.0000
   9699 C          35.7172   42.4212   14.3599 C.3     1  UNL1        0.0000
   9700 C          16.4358   36.3931   24.9731 C.ar    1  UNL1        0.0000
   9701 C          31.1215   35.3487   24.9876 C.3     1  UNL1        0.0000
   9702 C          21.0063   43.4584   14.3190 C.ar    1  UNL1        0.0000
   9703 C          27.9593   28.5768   25.1367 C.ar    1  UNL1        0.0000
   9704 C          26.1215   48.9261   14.5062 C.3     1  UNL1        0.0000
   9705 N          26.1765   48.3272   15.7444 N.3     1  UNL1        0.0000
   9706 N          30.5425   35.1659   23.7486 N.3     1  UNL1        0.0000
   9707 N          31.9320   39.5859   20.8718 N.3     1  UNL1        0.0000
   9708 N          30.0350   30.8493   22.5187 N.pl3   1  UNL1        0.0000
   9709 O          31.1893   39.8741   18.3047 O.2     1  UNL1        0.0000
   9710 O          20.7656   36.6396   21.1948 O.3     1  UNL1        0.0000
   9711 O          28.0158   32.5066   22.9166 O.3     1  UNL1        0.0000
   9712 O          24.5630   44.9552   16.6069 O.3     1  UNL1        0.0000
   9713 O          25.3994   43.5683   18.1930 O.3     1  UNL1        0.0000
   9714 O          26.4639   32.7506   21.2899 O.3     1  UNL1        0.0000
   9715 O          32.7775   39.5498   16.7271 O.2     1  UNL1        0.0000
   9716 O          19.9546   38.0267   22.7928 O.3     1  UNL1        0.0000
   9717 O          30.1050   39.2949   15.7281 O.3     1  UNL1        0.0000
   9718 O          22.4588   37.1535   23.2932 O.3     1  UNL1        0.0000
   9719 O          31.0438   41.5822   16.1781 O.3     1  UNL1        0.0000
   9720 O          20.7066   35.4288   23.7859 O.3     1  UNL1        0.0000
   9721 O          25.3131   32.2209   23.8806 O.3     1  UNL1        0.0000
   9722 O          27.0816   44.1163   16.1087 O.3     1  UNL1        0.0000
   9723 O          26.2671   34.4824   23.4164 O.3     1  UNL1        0.0000
   9724 O          25.3753   42.3592   15.5912 O.3     1  UNL1        0.0000
   9725 O          27.6844   31.3667   25.1827 O.3     1  UNL1        0.0000
   9726 O          25.9318   46.0399   14.3347 O.2     1  UNL1        0.0000
   9727 O          28.4865   34.1548   25.1775 O.2     1  UNL1        0.0000
   9728 O          23.6959   44.2042   14.2746 O.3     1  UNL1        0.0000
   9729 O          33.2247   41.2294   14.3208 O.2     1  UNL1        0.0000
   9730 O          19.0704   37.2690   25.1086 O.3     1  UNL1        0.0000
   9731 O          32.4291   38.4751   14.3502 O.3     1  UNL1        0.0000
   9732 O          21.3386   39.0513   25.1899 O.2     1  UNL1        0.0000
   9733 O          28.2968   41.6864   16.2292 O.3     1  UNL1        0.0000
   9734 O          23.5949   34.6826   23.2102 O.3     1  UNL1        0.0000
   9735 O          30.7509   40.4612   13.2964 O.3     1  UNL1        0.0000
   9736 O          26.1833   43.5633   13.1296 O.3     1  UNL1        0.0000
   9737 H          27.4218   36.4870   21.6167 H       1  UNL1        0.0000
   9738 H          23.5001   30.7079   19.9692 H       1  UNL1        0.0000
   9739 H          28.1800   45.4018   18.8416 H      49  UNL49       0.0000
   9740 H          28.5300   38.2269   20.1861 H       1  UNL1        0.0000
   9741 H          23.5862   38.2693   20.8037 H       1  UNL1        0.0000
   9742 H          20.0022   33.2093   19.8676 H       1  UNL1        0.0000
   9743 H          24.9586   36.5023   21.8725 H       1  UNL1        0.0000
   9744 H          24.7003   40.0288   19.4075 H       1  UNL1        0.0000
   9745 H          29.2837   43.2258   18.4013 H      49  UNL49       0.0000
   9746 H          15.6903   43.4591   18.8437 H      49  UNL49       0.0000
   9747 C          26.6770   39.2207   19.7085 C.ar    1  UNL1        0.0000
   9748 C          25.4423   37.2674   21.2674 C.ar    1  UNL1        0.0000
   9749 C          29.8549   44.0393   18.8491 C.2    49  UNL49       0.0000
   9750 C          21.8234   32.0628   19.9844 C.ar    1  UNL1        0.0000
   9751 C          25.2810   39.2462   19.8903 C.ar    1  UNL1        0.0000
   9752 C          26.8328   37.2527   21.1153 C.ar    1  UNL1        0.0000
   9753 C          29.2288   45.2658   19.1000 C.2    49  UNL49       0.0000
   9754 C          22.4522   30.8351   19.7066 C.ar    1  UNL1        0.0000
   9755 C          31.2080   43.8530   19.1533 C.3    49  UNL49       0.0000
   9756 C          20.4700   32.2517   19.6493 C.ar    1  UNL1        0.0000
   9757 C          27.4519   38.2248   20.3292 C.ar    1  UNL1        0.0000
   9758 C          24.6658   38.2636   20.6634 C.ar    1  UNL1        0.0000
   9759 O          28.5541   40.0753   18.5082 O.3     1  UNL1        0.0000
   9760 O          21.9327   34.1966   21.0413 O.3     1  UNL1        0.0000
   9761 O          23.7571   32.8769   21.1113 O.3     1  UNL1        0.0000
   9762 O          26.5869   41.1551   18.3305 O.3     1  UNL1        0.0000
   9763 N          29.6238   45.5007   38.3321 N.pl3  49  UNL49       0.0000
   9764 N          30.0869   44.7686   40.3360 N.pl3  49  UNL49       0.0000
   9765 C          30.2440   44.2706   38.1824 C.2    49  UNL49       0.0000
   9766 C          30.5346   43.8125   39.4400 C.2    49  UNL49       0.0000
   9767 C          31.4016   45.8197   42.1784 C.3    49  UNL49       0.0000
   9768 C          29.2490   46.4153   37.2466 C.3    49  UNL49       0.0000
   9769 C          29.5434   45.7833   39.6418 C.3    49  UNL49       0.0000
   9770 C          30.3405   44.7920   41.7932 C.3    49  UNL49       0.0000
   9771 H          30.5006   43.8650   37.2135 H      49  UNL49       0.0000
   9772 H          31.0351   42.9106   39.7666 H      49  UNL49       0.0000
   9773 H          32.3629   45.5958   41.7033 H      49  UNL49       0.0000
   9774 H          30.1282   46.5611   36.6098 H      49  UNL49       0.0000
   9775 H          31.1117   46.8322   41.8714 H      49  UNL49       0.0000
   9776 H          28.4288   45.9720   36.6768 H      49  UNL49       0.0000
   9777 H          31.5256   45.8071   43.2686 H      49  UNL49       0.0000
   9778 H          30.6598   43.7778   42.0659 H      49  UNL49       0.0000
   9779 H          28.9552   47.3690   37.6915 H      49  UNL49       0.0000
   9780 H          29.1715   46.7097   40.0553 H      49  UNL49       0.0000
   9781 H          29.3788   44.9831   42.2822 H      49  UNL49       0.0000
   9782 N          32.4333   48.5335   37.8855 N.3    49  UNL49       0.0000
   9783 C          32.3195   49.9146   40.2971 C.3    49  UNL49       0.0000
   9784 C          34.6234   47.0278   38.0735 C.3    49  UNL49       0.0000
   9785 O          31.0871   50.6038   38.0585 O.2    49  UNL49       0.0000
   9786 O          30.2784   48.5908   39.3249 O.2    49  UNL49       0.0000
   9787 O          32.4587   46.2464   36.8173 O.2    49  UNL49       0.0000
   9788 O          32.4163   46.3526   39.3259 O.2    49  UNL49       0.0000
   9789 F          33.3503   50.7380   39.9902 F      49  UNL49       0.0000
   9790 F          35.0807   47.8152   39.0741 F      49  UNL49       0.0000
   9791 F          32.8261   48.8505   40.9762 F      49  UNL49       0.0000
   9792 F          31.4590   50.5786   41.1232 F      49  UNL49       0.0000
   9793 F          35.1113   47.4881   36.8853 F      49  UNL49       0.0000
   9794 F          35.1108   45.7731   38.2605 F      49  UNL49       0.0000
   9795 S          31.3858   49.3678   38.7637 S.O2   49  UNL49       0.0000
   9796 S          32.7619   46.9713   38.0497 S.O2   49  UNL49       0.0000
   9797 TI         16.3225   30.2626   37.5348 Ti      1  UNL1        0.0000
   9798 TI         27.1530   33.1438   28.1700 Ti      1  UNL1        0.0000
   9799 TI         20.4192   26.3264   35.7148 Ti      1  UNL1        0.0000
   9800 TI         21.9304   35.4886   29.9418 Ti      1  UNL1        0.0000
   9801 TI         20.9318   37.1669   28.0374 Ti      1  UNL1        0.0000
   9802 TI         22.3074   26.0721   37.6682 Ti      1  UNL1        0.0000
   9803 TI         17.2717   28.5267   35.6433 Ti      1  UNL1        0.0000
   9804 TI         25.1652   33.4464   30.0174 Ti      1  UNL1        0.0000
   9805 H          16.8244   34.1597   37.3153 H       1  UNL1        0.0000
   9806 H          27.9618   29.2378   28.4906 H       1  UNL1        0.0000
   9807 H          12.3626   29.5060   37.1523 H       1  UNL1        0.0000
   9808 H          30.5351   35.1481   28.3706 H       1  UNL1        0.0000
   9809 H          23.2830   22.0375   37.2822 H       1  UNL1        0.0000
   9810 H          16.8733   36.5770   28.3594 H       1  UNL1        0.0000
   9811 H          21.4263   35.5301   26.1643 H       1  UNL1        0.0000
   9812 H          25.2774   32.9011   26.4700 H       1  UNL1        0.0000
   9813 H          22.8173   25.4050   32.1571 H       1  UNL1        0.0000
   9814 H          20.2069   37.3256   33.5607 H       1  UNL1        0.0000
   9815 H          13.1991   31.9154   35.2874 H       1  UNL1        0.0000
   9816 H          29.9077   31.0595   30.4760 H       1  UNL1        0.0000
   9817 H          15.5002   30.4679   31.9535 H       1  UNL1        0.0000
   9818 H          17.8317   38.9947   30.3906 H       1  UNL1        0.0000
   9819 H          21.3240   40.2697   28.8928 H       1  UNL1        0.0000
   9820 H          27.8039   27.2189   29.6931 H       1  UNL1        0.0000
   9821 H          24.0230   35.1687   28.6031 H       1  UNL1        0.0000
   9822 H          19.3385   28.1748   37.0084 H       1  UNL1        0.0000
   9823 H          26.5421   28.0069   36.0578 H       1  UNL1        0.0000
   9824 H          25.0610   27.5379   36.8052 H       1  UNL1        0.0000
   9825 H          27.1162   32.4406   34.9589 H       1  UNL1        0.0000
   9826 H          26.5465   32.7992   33.3404 H       1  UNL1        0.0000
   9827 H          26.0533   23.0521   35.8678 H       1  UNL1        0.0000
   9828 H          24.7742   24.1527   36.3252 H       1  UNL1        0.0000
   9829 C          27.7310   32.4026   31.0335 C.2     1  UNL1        0.0000
   9830 C          15.3619   30.5240   34.6877 C.3     1  UNL1        0.0000
   9831 C          22.9997   25.3157   34.7901 C.3     1  UNL1        0.0000
   9832 C          19.9943   37.4591   30.9011 C.3     1  UNL1        0.0000
   9833 C          28.6270   31.7983   32.0287 C.2     1  UNL1        0.0000
   9834 C          14.4300   31.1490   33.7107 C.ar    1  UNL1        0.0000
   9835 C          23.9399   24.7014   33.8429 C.ar    1  UNL1        0.0000
   9836 C          19.1044   38.1059   31.9009 C.2     1  UNL1        0.0000
   9837 C          28.3783   31.8732   33.4351 C.3     1  UNL1        0.0000
   9838 C          14.6464   31.0290   32.3227 C.ar    1  UNL1        0.0000
   9839 C          25.0693   23.9411   34.2959 C.ar    1  UNL1        0.0000
   9840 C          18.0097   38.8788   31.4560 C.3     1  UNL1        0.0000
   9841 C          19.3589   37.9351   33.2558 C.2     1  UNL1        0.0000
   9842 C          23.6922   24.8335   32.4590 C.ar    1  UNL1        0.0000
   9843 C          29.7607   31.0993   31.5530 C.3     1  UNL1        0.0000
   9844 C          13.3299   31.8414   34.2094 C.ar    1  UNL1        0.0000
   9845 C          27.9428   29.3169   26.3465 C.ar    1  UNL1        0.0000
   9846 C          21.4730   41.1084   26.3716 C.2     1  UNL1        0.0000
   9847 C          30.4272   35.0800   26.2205 C.2     1  UNL1        0.0000
   9848 C          17.0689   36.6224   26.2012 C.ar    1  UNL1        0.0000
   9849 C          22.6771   33.1454   31.9063 C.3     1  UNL1        0.0000
   9850 C          17.9210   26.0510   33.8245 C.3     1  UNL1        0.0000
   9851 C          27.8069   30.7717   26.3233 C.3     1  UNL1        0.0000
   9852 C          21.3803   39.6749   26.3341 C.2     1  UNL1        0.0000
   9853 C          29.1294   34.4631   26.2674 C.2     1  UNL1        0.0000
   9854 C          18.4712   37.0367   26.2256 C.3     1  UNL1        0.0000
   9855 C          27.9821   28.6477   27.5762 C.ar    1  UNL1        0.0000
   9856 C          16.8353   34.7481   38.2292 C.3     1  UNL1        0.0000
   9857 C          31.0825   35.3548   27.4545 C.3     1  UNL1        0.0000
   9858 C          11.8011   29.3266   38.0677 C.ar    1  UNL1        0.0000
   9859 C          26.4869   28.2823   38.0822 C.3     1  UNL1        0.0000
   9860 C          16.3717   36.3920   27.4136 C.ar    1  UNL1        0.0000
   9861 C          23.3246   21.5104   38.2313 C.ar    1  UNL1        0.0000
   9862 C          21.4868   41.8596   27.6008 C.3     1  UNL1        0.0000
   9863 N          21.5419   41.2608   28.8390 N.3     1  UNL1        0.0000
   9864 N          25.9078   28.0994   36.8432 N.3     1  UNL1        0.0000
   9865 N          27.2974   32.5194   33.9664 N.3     1  UNL1        0.0000
   9866 N          25.4003   23.7828   35.6133 N.pl3   1  UNL1        0.0000
   9867 O          26.5547   32.8077   31.3993 O.2     1  UNL1        0.0000
   9868 O          16.1309   29.5731   34.2895 O.3     1  UNL1        0.0000
   9869 O          23.3811   25.4402   36.0112 O.3     1  UNL1        0.0000
   9870 O          19.9284   37.8887   29.7015 O.3     1  UNL1        0.0000
   9871 O          20.7647   36.5019   31.2876 O.3     1  UNL1        0.0000
   9872 O          21.8293   25.6842   34.3845 O.3     1  UNL1        0.0000
   9873 O          28.1429   32.4834   29.8217 O.2     1  UNL1        0.0000
   9874 O          15.3199   30.9603   35.8874 O.3     1  UNL1        0.0000
   9875 O          25.4704   32.2285   28.8227 O.3     1  UNL1        0.0000
   9876 O          17.8242   30.0871   36.3878 O.3     1  UNL1        0.0000
   9877 O          26.4092   34.5158   29.2727 O.3     1  UNL1        0.0000
   9878 O          16.0720   28.3624   36.8805 O.3     1  UNL1        0.0000
   9879 O          20.6785   25.1545   36.9752 O.3     1  UNL1        0.0000
   9880 O          22.4469   37.0499   29.2033 O.3     1  UNL1        0.0000
   9881 O          21.6324   27.4160   36.5110 O.3     1  UNL1        0.0000
   9882 O          20.7407   35.2928   28.6858 O.3     1  UNL1        0.0000
   9883 O          23.0497   24.3002   38.2773 O.3     1  UNL1        0.0000
   9884 O          21.2972   38.9735   27.4293 O.2     1  UNL1        0.0000
   9885 O          23.8519   27.0884   38.2721 O.2     1  UNL1        0.0000
   9886 O          19.0613   37.1378   27.3692 O.3     1  UNL1        0.0000
   9887 O          28.5900   34.1630   27.4154 O.2     1  UNL1        0.0000
   9888 O          14.4357   30.2026   38.2032 O.3     1  UNL1        0.0000
   9889 O          27.7945   31.4086   27.4448 O.3     1  UNL1        0.0000
   9890 O          16.7039   31.9849   38.2845 O.2     1  UNL1        0.0000
   9891 O          23.6622   34.6199   29.3238 O.3     1  UNL1        0.0000
   9892 O          18.9602   27.6161   36.3048 O.3     1  UNL1        0.0000
   9893 O          26.1163   33.3948   26.3910 O.3     1  UNL1        0.0000
   9894 O          21.5486   36.4969   26.2243 O.3     1  UNL1        0.0000
   9895 H          22.7871   29.4206   34.7114 H       1  UNL1        0.0000
   9896 H          18.8655   23.6414   33.0638 H       1  UNL1        0.0000
   9897 H          23.5454   38.3354   31.9362 H      49  UNL49       0.0000
   9898 H          23.8953   31.1604   33.2807 H       1  UNL1        0.0000
   9899 H          18.9515   31.2028   33.8983 H       1  UNL1        0.0000
   9900 H          15.3676   26.1428   32.9622 H       1  UNL1        0.0000
   9901 H          20.3240   29.4359   34.9671 H       1  UNL1        0.0000
   9902 H          20.0657   32.9624   32.5021 H       1  UNL1        0.0000
   9903 H          24.6491   36.1594   31.4959 H      49  UNL49       0.0000
   9904 H          11.0556   36.3927   31.9383 H      49  UNL49       0.0000
   9905 C          22.0424   32.1543   32.8031 C.ar    1  UNL1        0.0000
   9906 C          20.8077   30.2010   34.3620 C.ar    1  UNL1        0.0000
   9907 C          25.2202   36.9729   31.9437 C.2    49  UNL49       0.0000
   9908 C          17.1888   24.9963   33.0790 C.ar    1  UNL1        0.0000
   9909 C          20.6463   32.1798   32.9849 C.ar    1  UNL1        0.0000
   9910 C          22.1981   30.1863   34.2099 C.ar    1  UNL1        0.0000
   9911 C          24.5941   38.1994   32.1947 C.2    49  UNL49       0.0000
   9912 C          17.8175   23.7687   32.8012 C.ar    1  UNL1        0.0000
   9913 C          26.5734   36.7866   32.2479 C.3    49  UNL49       0.0000
   9914 C          15.8353   25.1853   32.7439 C.ar    1  UNL1        0.0000
   9915 C          22.8172   31.1583   33.4238 C.ar    1  UNL1        0.0000
   9916 C          20.0311   31.1971   33.7580 C.ar    1  UNL1        0.0000
   9917 O          23.9195   33.0088   31.6028 O.3     1  UNL1        0.0000
   9918 O          17.2981   27.1301   34.1359 O.3     1  UNL1        0.0000
   9919 O          19.1224   25.8105   34.2059 O.3     1  UNL1        0.0000
   9920 O          21.9522   34.0887   31.4251 O.3     1  UNL1        0.0000
   9921 N          24.9892   38.4343   51.4268 N.pl3  49  UNL49       0.0000
   9922 N          25.4522   37.7021   53.4306 N.pl3  49  UNL49       0.0000
   9923 C          25.6094   37.2042   51.2770 C.2    49  UNL49       0.0000
   9924 C          25.8999   36.7460   52.5346 C.2    49  UNL49       0.0000
   9925 C          26.7669   38.7533   55.2730 C.3    49  UNL49       0.0000
   9926 C          24.6144   39.3489   50.3412 C.3    49  UNL49       0.0000
   9927 C          24.9087   38.7168   52.7364 C.3    49  UNL49       0.0000
   9928 C          25.7058   37.7255   54.8878 C.3    49  UNL49       0.0000
   9929 H          25.8660   36.7985   50.3082 H      49  UNL49       0.0000
   9930 H          26.4005   35.8441   52.8612 H      49  UNL49       0.0000
   9931 H          27.7282   38.5294   54.7979 H      49  UNL49       0.0000
   9932 H          25.4935   39.4947   49.7044 H      49  UNL49       0.0000
   9933 H          26.4771   39.7657   54.9660 H      49  UNL49       0.0000
   9934 H          23.7942   38.9056   49.7714 H      49  UNL49       0.0000
   9935 H          26.8910   38.7407   56.3632 H      49  UNL49       0.0000
   9936 H          26.0252   36.7114   55.1605 H      49  UNL49       0.0000
   9937 H          24.3206   40.3026   50.7861 H      49  UNL49       0.0000
   9938 H          24.5369   39.6433   53.1500 H      49  UNL49       0.0000
   9939 H          24.7442   37.9166   55.3768 H      49  UNL49       0.0000
   9940 N          27.7986   41.4670   50.9801 N.3    49  UNL49       0.0000
   9941 C          27.6849   42.8481   53.3917 C.3    49  UNL49       0.0000
   9942 C          29.9888   39.9613   51.1681 C.3    49  UNL49       0.0000
   9943 O          26.4525   43.5374   51.1531 O.2    49  UNL49       0.0000
   9944 O          25.6437   41.5244   52.4195 O.2    49  UNL49       0.0000
   9945 O          27.8241   39.1799   49.9119 O.2    49  UNL49       0.0000
   9946 O          27.7817   39.2862   52.4205 O.2    49  UNL49       0.0000
   9947 F          28.7157   43.6715   53.0849 F      49  UNL49       0.0000
   9948 F          30.4461   40.7487   52.1687 F      49  UNL49       0.0000
   9949 F          28.1914   41.7841   54.0708 F      49  UNL49       0.0000
   9950 F          26.8244   43.5121   54.2178 F      49  UNL49       0.0000
   9951 F          30.4766   40.4217   49.9799 F      49  UNL49       0.0000
   9952 F          30.4761   38.7066   51.3551 F      49  UNL49       0.0000
   9953 S          26.7512   42.3013   51.8583 S.O2   49  UNL49       0.0000
   9954 S          28.1272   39.9049   51.1443 S.O2   49  UNL49       0.0000
   9955 TI         11.6878   23.1962   50.6294 Ti      1  UNL1        0.0000
   9956 TI         22.5183   26.0774   41.2646 Ti      1  UNL1        0.0000
   9957 TI         15.7845   19.2600   48.8094 Ti      1  UNL1        0.0000
   9958 TI         17.2957   28.4221   43.0364 Ti      1  UNL1        0.0000
   9959 TI         16.2972   30.1004   41.1320 Ti      1  UNL1        0.0000
   9960 TI         17.6727   19.0056   50.7628 Ti      1  UNL1        0.0000
   9961 TI         12.6370   21.4603   48.7379 Ti      1  UNL1        0.0000
   9962 TI         20.5305   26.3800   43.1120 Ti      1  UNL1        0.0000
   9963 H          12.1897   27.0933   50.4099 H      49  UNL49       0.0000
   9964 H          23.3271   22.1713   41.5853 H       1  UNL1        0.0000
   9965 H           7.7279   22.4396   50.2469 H      49  UNL49       0.0000
   9966 H          25.9005   28.0817   41.4652 H       1  UNL1        0.0000
   9967 H          18.6483   14.9711   50.3768 H      49  UNL49       0.0000
   9968 H          12.2386   29.5105   41.4540 H       1  UNL1        0.0000
   9969 H          16.7916   28.4636   39.2589 H       1  UNL1        0.0000
   9970 H          20.6428   25.8347   39.5646 H       1  UNL1        0.0000
   9971 H          18.1826   18.3385   45.2517 H       1  UNL1        0.0000
   9972 H          15.5723   30.2591   46.6553 H       1  UNL1        0.0000
   9973 H           8.5644   24.8489   48.3820 H       1  UNL1        0.0000
   9974 H          25.2731   23.9931   43.5706 H       1  UNL1        0.0000
   9975 H          10.8655   23.4015   45.0482 H       1  UNL1        0.0000
   9976 H          13.1971   31.9283   43.4852 H       1  UNL1        0.0000
   9977 H          16.6894   33.2033   41.9874 H       1  UNL1        0.0000
   9978 H          23.1693   20.1525   42.7877 H       1  UNL1        0.0000
   9979 H          19.3884   28.1023   41.6977 H       1  UNL1        0.0000
   9980 H          14.7038   21.1084   50.1030 H       1  UNL1        0.0000
   9981 H          21.9075   20.9405   49.1524 H      49  UNL49       0.0000
   9982 H          20.4264   20.4714   49.8998 H      49  UNL49       0.0000
   9983 H          22.4816   25.3741   48.0535 H       1  UNL1        0.0000
   9984 H          21.9119   25.7327   46.4350 H       1  UNL1        0.0000
   9985 H          21.4187   15.9857   48.9624 H       1  UNL1        0.0000
   9986 H          20.1395   17.0862   49.4198 H       1  UNL1        0.0000
   9987 C          23.0964   25.3362   44.1281 C.2     1  UNL1        0.0000
   9988 C          10.7273   23.4576   47.7823 C.3     1  UNL1        0.0000
   9989 C          18.3650   18.2493   47.8847 C.3     1  UNL1        0.0000
   9990 C          15.3596   30.3926   43.9957 C.3     1  UNL1        0.0000
   9991 C          23.9924   24.7318   45.1233 C.2     1  UNL1        0.0000
   9992 C           9.7954   24.0826   46.8053 C.ar    1  UNL1        0.0000
   9993 C          19.3052   17.6349   46.9375 C.ar    1  UNL1        0.0000
   9994 C          14.4698   31.0394   44.9955 C.2     1  UNL1        0.0000
   9995 C          23.7436   24.8068   46.5297 C.3     1  UNL1        0.0000
   9996 C          10.0118   23.9626   45.4173 C.ar    1  UNL1        0.0000
   9997 C          20.4347   16.8746   47.3905 C.ar    1  UNL1        0.0000
   9998 C          13.3751   31.8124   44.5506 C.3     1  UNL1        0.0000
   9999 C          14.7243   30.8687   46.3504 C.2     1  UNL1        0.0000
  10000 C          19.0575   17.7671   45.5536 C.ar    1  UNL1        0.0000
  10001 C          25.1261   24.0329   44.6476 C.3     1  UNL1        0.0000
  10002 C           8.6952   24.7750   47.3040 C.ar    1  UNL1        0.0000
  10003 C          23.3081   22.2504   39.4412 C.ar    1  UNL1        0.0000
  10004 C          16.8384   34.0420   39.4662 C.2     1  UNL1        0.0000
  10005 C          25.7926   28.0135   39.3152 C.2     1  UNL1        0.0000
  10006 C          12.4342   29.5560   39.2958 C.ar    1  UNL1        0.0000
  10007 C          18.0424   26.0789   45.0010 C.3     1  UNL1        0.0000
  10008 C          13.2864   18.9846   46.9191 C.3     1  UNL1        0.0000
  10009 C          23.1723   23.7053   39.4180 C.3     1  UNL1        0.0000
  10010 C          16.7456   32.6085   39.4287 C.2     1  UNL1        0.0000
  10011 C          24.4947   27.3967   39.3620 C.2     1  UNL1        0.0000
  10012 C          13.8365   29.9703   39.3202 C.3     1  UNL1        0.0000
  10013 C          23.3475   21.5813   40.6708 C.ar    1  UNL1        0.0000
  10014 C          12.2007   27.6817   51.3238 C.3    72  UNL72       0.0000
  10015 C          26.4479   28.2883   40.5491 C.3     1  UNL1        0.0000
  10016 C           7.1665   22.2602   51.1623 C.2    49  UNL49       0.0000
  10017 C          21.8522   21.2158   51.1768 C.3    49  UNL49       0.0000
  10018 C          11.7370   29.3255   40.5082 C.ar    1  UNL1        0.0000
  10019 C          18.6900   14.4439   51.3259 C.2    49  UNL49       0.0000
  10020 C          16.8522   34.7932   40.6954 C.3     1  UNL1        0.0000
  10021 N          16.9072   34.1944   41.9336 N.3     1  UNL1        0.0000
  10022 N          21.2732   21.0330   49.9378 N.3    49  UNL49       0.0000
  10023 N          22.6627   25.4530   47.0610 N.3     1  UNL1        0.0000
  10024 N          20.7657   16.7164   48.7079 N.pl3   1  UNL1        0.0000
  10025 O          21.9200   25.7413   44.4939 O.2     1  UNL1        0.0000
  10026 O          11.4963   22.5067   47.3841 O.3     1  UNL1        0.0000
  10027 O          18.7465   18.3738   49.1058 O.3     1  UNL1        0.0000
  10028 O          15.2937   30.8223   42.7961 O.3     1  UNL1        0.0000
  10029 O          16.1301   29.4354   44.3822 O.3     1  UNL1        0.0000
  10030 O          17.1946   18.6177   47.4792 O.3     1  UNL1        0.0000
  10031 O          23.5082   25.4169   42.9163 O.2     1  UNL1        0.0000
  10032 O          10.6853   23.8938   48.9821 O.3     1  UNL1        0.0000
  10033 O          20.8357   25.1620   41.9173 O.3     1  UNL1        0.0000
  10034 O          13.1895   23.0207   49.4824 O.3     1  UNL1        0.0000
  10035 O          21.7745   27.4493   42.3673 O.3     1  UNL1        0.0000
  10036 O          11.4373   21.2960   49.9751 O.3     1  UNL1        0.0000
  10037 O          16.0438   18.0880   50.0698 O.3     1  UNL1        0.0000
  10038 O          17.8123   29.9834   42.2979 O.3     1  UNL1        0.0000
  10039 O          16.9978   20.3495   49.6056 O.3     1  UNL1        0.0000
  10040 O          16.1060   28.2263   41.7805 O.3     1  UNL1        0.0000
  10041 O          18.4151   17.2338   51.3719 O.3     1  UNL1        0.0000
  10042 O          16.6625   31.9071   40.5239 O.2     1  UNL1        0.0000
  10043 O          19.2172   20.0220   51.3667 O.3     1  UNL1        0.0000
  10044 O          14.4266   30.0713   40.4638 O.3     1  UNL1        0.0000
  10045 O          23.9554   27.0965   40.5100 O.2     1  UNL1        0.0000
  10046 O           9.8011   23.1361   51.2978 O.3     1  UNL1        0.0000
  10047 O          23.1598   24.3422   40.5394 O.3     1  UNL1        0.0000
  10048 O          12.0693   24.9185   51.3791 O.3     1  UNL1        0.0000
  10049 O          19.0275   27.5535   42.4184 O.3     1  UNL1        0.0000
  10050 O          14.3256   20.5497   49.3994 O.3     1  UNL1        0.0000
  10051 O          21.4816   26.3284   39.4856 O.3     1  UNL1        0.0000
  10052 O          16.9140   29.4304   39.3189 O.3     1  UNL1        0.0000
  10053 H          18.1525   22.3542   47.8060 H       1  UNL1        0.0000
  10054 H          14.2308   16.5750   46.1584 H       1  UNL1        0.0000
  10055 H          18.9107   31.2689   45.0308 H      49  UNL49       0.0000
  10056 H          19.2607   24.0940   46.3753 H       1  UNL1        0.0000
  10057 H          14.3169   24.1364   46.9929 H       1  UNL1        0.0000
  10058 H          10.7329   19.0764   46.0568 H       1  UNL1        0.0000
  10059 H          15.6893   22.3695   48.0617 H       1  UNL1        0.0000
  10060 H          15.4310   25.8959   45.5967 H       1  UNL1        0.0000
  10061 H          20.0144   29.0929   44.5905 H      49  UNL49       0.0000
  10062 H           6.4210   29.3263   45.0329 H      49  UNL49       0.0000
  10063 C          17.4077   25.0878   45.8977 C.ar    1  UNL1        0.0000
  10064 C          16.1730   23.1346   47.4566 C.ar    1  UNL1        0.0000
  10065 C          20.5856   29.9064   45.0383 C.2    49  UNL49       0.0000
  10066 C          12.5541   17.9299   46.1736 C.ar    1  UNL1        0.0000
  10067 C          16.0117   25.1134   46.0795 C.ar    1  UNL1        0.0000
  10068 C          17.5635   23.1199   47.3045 C.ar    1  UNL1        0.0000
  10069 C          19.9595   31.1329   45.2893 C.2    49  UNL49       0.0000
  10070 C          13.1829   16.7023   45.8958 C.ar    1  UNL1        0.0000
  10071 C          21.9387   29.7202   45.3426 C.3    49  UNL49       0.0000
  10072 C          11.2007   18.1189   45.8386 C.ar    1  UNL1        0.0000
  10073 C          18.1826   24.0919   46.5185 C.ar    1  UNL1        0.0000
  10074 C          15.3965   24.1307   46.8526 C.ar    1  UNL1        0.0000
  10075 O          19.2848   25.9424   44.6974 O.3     1  UNL1        0.0000
  10076 O          12.6634   20.0637   47.2305 O.3     1  UNL1        0.0000
  10077 O          14.4878   18.7440   47.3005 O.3     1  UNL1        0.0000
  10078 O          17.3176   27.0222   44.5197 O.3     1  UNL1        0.0000
  10079 N          20.3545   31.3679   64.5214 N.pl3  49  UNL49       0.0000
  10080 N          20.8176   30.6357   66.5253 N.pl3  49  UNL49       0.0000
  10081 C          20.9747   30.1377   64.3716 C.2    49  UNL49       0.0000
  10082 C          21.2653   29.6796   65.6292 C.2    49  UNL49       0.0000
  10083 C          22.1323   31.6868   68.3676 C.3    49  UNL49       0.0000
  10084 C          19.9798   32.2825   63.4358 C.3    49  UNL49       0.0000
  10085 C          20.2741   31.6504   65.8310 C.3    49  UNL49       0.0000
  10086 C          21.0712   30.6591   67.9824 C.3    49  UNL49       0.0000
  10087 H          21.2313   29.7321   63.4028 H      49  UNL49       0.0000
  10088 H          21.7658   28.7777   65.9558 H      49  UNL49       0.0000
  10089 H          23.0936   31.4630   67.8925 H      49  UNL49       0.0000
  10090 H          20.8589   32.4282   62.7990 H      49  UNL49       0.0000
  10091 H          21.8424   32.6993   68.0606 H      49  UNL49       0.0000
  10092 H          19.1595   31.8391   62.8660 H      49  UNL49       0.0000
  10093 H          22.2563   31.6743   69.4578 H      49  UNL49       0.0000
  10094 H          21.3905   29.6450   68.2551 H      49  UNL49       0.0000
  10095 H          19.6859   33.2361   63.8808 H      49  UNL49       0.0000
  10096 H          19.9022   32.5768   66.2446 H      49  UNL49       0.0000
  10097 H          20.1095   30.8502   68.4715 H      49  UNL49       0.0000
  10098 N          23.1640   34.4006   64.0748 N.3    49  UNL49       0.0000
  10099 C          23.0502   35.7817   66.4864 C.3    49  UNL49       0.0000
  10100 C          25.3541   32.8949   64.2627 C.3    49  UNL49       0.0000
  10101 O          21.8179   36.4710   64.2477 O.2    49  UNL49       0.0000
  10102 O          21.0091   34.4580   65.5141 O.2    49  UNL49       0.0000
  10103 O          23.1894   32.1135   63.0065 O.2    49  UNL49       0.0000
  10104 O          23.1470   32.2197   65.5151 O.2    49  UNL49       0.0000
  10105 F          24.0810   36.6051   66.1795 F      49  UNL49       0.0000
  10106 F          25.8115   33.6823   65.2633 F      49  UNL49       0.0000
  10107 F          23.5568   34.7177   67.1654 F      49  UNL49       0.0000
  10108 F          22.1897   36.4457   67.3124 F      49  UNL49       0.0000
  10109 F          25.8420   33.3552   63.0746 F      49  UNL49       0.0000
  10110 F          25.8415   31.6402   64.4497 F      49  UNL49       0.0000
  10111 S          22.1165   35.2349   64.9529 S.O2   49  UNL49       0.0000
  10112 S          23.4926   32.8384   64.2389 S.O2   49  UNL49       0.0000
@<TRIPOS>BOND
     1  1911  1994    1
     2  1948  1954    2
     3  1948  1960    1
     4  1947  1953    2
     5  1947  1957    1
     6  1279  1362    1
     7  1994  1901    1
     8  1954  1986    1
     9  4439  4522    1
    10  1316  1322    2
    11  1316  1328    1
    12  1953  1987    1
    13  1315  1321    2
    14  1315  1325    1
    15   647   730    1
    16  1362  1269    1
    17  1322  1354    1
    18  4476  4482    2
    19  4476  4488    1
    20  4475  4481    2
    21  4475  4485    1
    22  3807  3890    1
    23  4522  4429    1
    24   684   690    2
    25   684   696    1
    26  4482  4514    1
    27  1951  1945    2
    28  1951  1989    1
    29  1321  1355    1
    30   683   689    2
    31   683   693    1
    32    15    98    1
    33  1952  1946    2
    34  1952  1984    1
    35   730   637    1
    36   690   722    1
    37  6967  7050    1
    38  1945  1955    1
    39  3844  3850    2
    40  3844  3856    1
    41  4481  4515    1
    42  3843  3849    2
    43  3843  3853    1
    44  3175  3258    1
    45  3890  3797    1
    46    52    58    2
    47    52    64    1
    48  1946  1962    1
    49  3850  3882    1
    50  1319  1313    2
    51  1319  1357    1
    52  7004  7010    2
    53  7004  7016    1
    54   689   723    1
    55    51    57    2
    56    51    61    1
    57  1320  1314    2
    58  1320  1352    1
    59  1993  1912    1
    60  1993  1898    1
    61    98     5    1
    62    58    90    1
    63  7003  7009    2
    64  7003  7013    1
    65  6335  6418    1
    66  1313  1323    1
    67  7050  6957    1
    68  3212  3218    2
    69  3212  3224    1
    70  7010  7042    1
    71  4479  4473    2
    72  4479  4517    1
    73  3849  3883    1
    74  3211  3217    2
    75  3211  3221    1
    76  2543  2626    1
    77  4480  4474    2
    78  4480  4512    1
    79  3258  3165    1
    80  1314  1330    1
    81  3218  3250    1
    82  9495  9578    1
    83  4473  4483    1
    84   687   681    2
    85   687   725    1
    86  6372  6378    2
    87  6372  6384    1
    88    57    91    1
    89  7009  7043    1
    90   688   682    2
    91   688   720    1
    92  1361  1280    1
    93  1361  1266    1
    94  6371  6377    2
    95  6371  6381    1
    96  5703  5786    1
    97   681   691    1
    98  6418  6325    1
    99  2580  2586    2
   100  2580  2592    1
   101  4474  4490    1
   102  6378  6410    1
   103  3847  3841    2
   104  3847  3885    1
   105  9532  9538    2
   106  9532  9544    1
   107  3217  3251    1
   108  2579  2585    2
   109  2579  2589    1
   110  3848  3842    2
   111  3848  3880    1
   112  4521  4440    1
   113  4521  4426    1
   114  2626  2533    1
   115   682   698    1
   116  2586  2618    1
   117  9531  9537    2
   118  9531  9541    1
   119  8863  8946    1
   120  3841  3851    1
   121    55    49    2
   122    55    93    1
   123  9578  9485    1
   124  5740  5746    2
   125  5740  5752    1
   126  9538  9570    1
   127  7007  7001    2
   128  7007  7045    1
   129  6377  6411    1
   130    56    50    2
   131    56    88    1
   132   729   648    1
   133   729   634    1
   134  5739  5745    2
   135  5739  5749    1
   136  5071  5154    1
   137  7008  7002    2
   138  7008  7040    1
   139    49    59    1
   140  5786  5693    1
   141  3842  3858    1
   142  5746  5778    1
   143  7001  7011    1
   144  3215  3209    2
   145  3215  3253    1
   146  8900  8906    2
   147  8900  8912    1
   148  2585  2619    1
   149  9537  9571    1
   150  3216  3210    2
   151  3216  3248    1
   152  3889  3808    1
   153  3889  3794    1
   154    50    66    1
   155  8899  8905    2
   156  8899  8909    1
   157  8231  8314    1
   158  3209  3219    1
   159  8946  8853    1
   160  5108  5114    2
   161  5108  5120    1
   162  7002  7018    1
   163  8906  8938    1
   164  6375  6369    2
   165  6375  6413    1
   166  5745  5779    1
   167    97    16    1
   168    97     2    1
   169  5107  5113    2
   170  5107  5117    1
   171  6376  6370    2
   172  6376  6408    1
   173  7049  6968    1
   174  7049  6954    1
   175  5154  5061    1
   176  3210  3226    1
   177  5114  5146    1
   178  6369  6379    1
   179  2583  2577    2
   180  2583  2621    1
   181  8268  8274    2
   182  8268  8280    1
   183  9535  9529    2
   184  9535  9573    1
   185  8905  8939    1
   186  2584  2578    2
   187  2584  2616    1
   188  3257  3176    1
   189  3257  3162    1
   190  8267  8273    2
   191  8267  8277    1
   192  7599  7682    1
   193  9536  9530    2
   194  9536  9568    1
   195  2577  2587    1
   196  8314  8221    1
   197  6370  6386    1
   198  8274  8306    1
   199  9529  9539    1
   200  5743  5737    2
   201  5743  5781    1
   202  5113  5147    1
   203  5744  5738    2
   204  5744  5776    1
   205  6417  6336    1
   206  6417  6322    1
   207  2578  2594    1
   208  5737  5747    1
   209  7636  7642    2
   210  7636  7648    1
   211  9530  9546    1
   212  8903  8897    2
   213  8903  8941    1
   214  8273  8307    1
   215  2625  2544    1
   216  2625  2530    1
   217  7635  7641    2
   218  7635  7645    1
   219  8904  8898    2
   220  8904  8936    1
   221  9577  9496    1
   222  9577  9482    1
   223  7682  7589    1
   224  5738  5754    1
   225  7642  7674    1
   226  8897  8907    1
   227  5111  5105    2
   228  5111  5149    1
   229  5112  5106    2
   230  5112  5144    1
   231  5785  5704    1
   232  5785  5690    1
   233  5105  5115    1
   234  8898  8914    1
   235  8271  8265    2
   236  8271  8309    1
   237  7641  7675    1
   238  8272  8266    2
   239  8272  8304    1
   240  8945  8864    1
   241  8945  8850    1
   242  5106  5122    1
   243  8265  8275    1
   244  5153  5072    1
   245  5153  5058    1
   246  8266  8282    1
   247  7639  7633    2
   248  7639  7677    1
   249  7640  7634    2
   250  7640  7672    1
   251  8313  8232    1
   252  8313  8218    1
   253  7633  7643    1
   254  7634  7650    1
   255  7681  7600    1
   256  7681  7586    1
   257  1986  1901    1
   258  1960  1910    1
   259  1987  1898    1
   260  1354  1269    1
   261  1984  1901    1
   262  1989  1898    1
   263  1957  4488    2
   264  1957  1908    1
   265  4514  4429    1
   266  1328  1278    1
   267  1355  1266    1
   268   722   637    1
   269  1352  1269    1
   270  1357  1266    1
   271  4488  4438    1
   272  4515  4426    1
   273  1325  3856    2
   274  1325  1276    1
   275  3882  3797    1
   276  4512  4429    1
   277   696   646    1
   278   723   634    1
   279  4517  4426    1
   280    90     5    1
   281   720   637    1
   282  4485  7016    2
   283  4485  4436    1
   284  7042  6957    1
   285   725   634    1
   286  3856  3806    1
   287  3883  3794    1
   288   693  3224    2
   289   693   644    1
   290  3250  3165    1
   291  3880  3797    1
   292  1955  1330    2
   293  1955  1906    1
   294    64    14    1
   295    91     2    1
   296  3885  3794    1
   297  7016  6966    1
   298  7043  6954    1
   299    88     5    1
   300  3853  6384    2
   301  3853  3804    1
   302  1962  1963    1
   303  6410  6325    1
   304  7040  6957    1
   305    93     2    1
   306  3224  3174    1
   307  3251  3162    1
   308  7045  6954    1
   309    61  2592    2
   310    61    12    1
   311  2618  2533    1
   312  3248  3165    1
   313  1323   698    2
   314  1323  1274    1
   315  7013  9544    2
   316  7013  6964    1
   317  9570  9485    1
   318  3253  3162    1
   319  6384  6334    1
   320  6411  6322    1
   321  3221  5752    2
   322  3221  3172    1
   323  1330  1331    1
   324  5778  5693    1
   325  6408  6325    1
   326  4483  3858    2
   327  4483  4434    1
   328  2592  2542    1
   329  2619  2530    1
   330  6413  6322    1
   331  9544  9494    1
   332  9571  9482    1
   333  2616  2533    1
   334   691    66    2
   335   691   642    1
   336  6381  8912    2
   337  6381  6332    1
   338  4490  4491    1
   339  8938  8853    1
   340  9568  9485    1
   341  2621  2530    1
   342  5752  5702    1
   343  5779  5690    1
   344  9573  9482    1
   345  2589  5120    2
   346  2589  2540    1
   347   698   699    1
   348  5146  5061    1
   349  5776  5693    1
   350  3851  3226    2
   351  3851  3802    1
   352  9541  9492    1
   353  5781  5690    1
   354  8912  8862    1
   355  8939  8850    1
   356    59    10    1
   357  5749  8280    2
   358  5749  5700    1
   359  3858  3859    1
   360  8306  8221    1
   361  8936  8853    1
   362  7011  6386    2
   363  7011  6962    1
   364  5120  5070    1
   365  5147  5058    1
   366  8941  8850    1
   367    66    67    1
   368  5144  5061    1
   369  3219  2594    2
   370  3219  3170    1
   371  8909  8860    1
   372  7018  7019    1
   373  5149  5058    1
   374  8280  8230    1
   375  8307  8218    1
   376  5117  7648    2
   377  5117  5068    1
   378  3226  3227    1
   379  7674  7589    1
   380  8304  8221    1
   381  6379  5754    2
   382  6379  6330    1
   383  8309  8218    1
   384  2587  2538    1
   385  8277  8228    1
   386  6386  6387    1
   387  9539  8914    2
   388  9539  9490    1
   389  7648  7598    1
   390  7675  7586    1
   391  2594  2595    1
   392  7672  7589    1
   393  5747  5122    2
   394  5747  5698    1
   395  9546  9547    1
   396  7677  7586    1
   397  7645  7596    1
   398  5754  5755    1
   399  8907  8282    2
   400  8907  8858    1
   401  5115  5066    1
   402  8914  8915    1
   403  5122  5123    1
   404  8275  7650    2
   405  8275  8226    1
   406  8282  8283    1
   407  7643  7594    1
   408  1901  1982    1
   409  1901  1980    1
   410  1901  1970    1
   411  7650  7651    1
   412  1269  1350    1
   413  1269  1348    1
   414  1269  1338    1
   415  4429  4510    1
   416  4429  4508    1
   417  4429  4498    1
   418   637   718    1
   419   637   716    1
   420   637   706    1
   421  1898  1975    1
   422  1898  1977    1
   423  1898  1973    1
   424  3797  3878    1
   425  3797  3876    1
   426  3797  3866    1
   427     5    86    1
   428     5    84    1
   429     5    74    1
   430  6957  7038    1
   431  6957  7036    1
   432  6957  7026    1
   433  1266  1343    1
   434  1266  1345    1
   435  1266  1341    1
   436  3165  3246    1
   437  3165  3244    1
   438  3165  3234    1
   439  4426  4503    1
   440  4426  4505    1
   441  4426  4501    1
   442  6325  6406    1
   443  6325  6404    1
   444  6325  6394    1
   445   634   711    1
   446   634   713    1
   447   634   709    1
   448  2533  2614    1
   449  2533  2612    1
   450  2533  2602    1
   451  9485  9566    1
   452  9485  9564    1
   453  9485  9554    1
   454  3794  3871    1
   455  3794  3873    1
   456  3794  3869    1
   457  5693  5774    1
   458  5693  5772    1
   459  5693  5762    1
   460     2    79    1
   461     2    81    1
   462     2    77    1
   463  6954  7031    1
   464  6954  7033    1
   465  6954  7029    1
   466  8853  8934    1
   467  8853  8932    1
   468  8853  8922    1
   469  3162  3239    1
   470  3162  3241    1
   471  3162  3237    1
   472  5061  5142    1
   473  5061  5140    1
   474  5061  5130    1
   475  6322  6399    1
   476  6322  6401    1
   477  6322  6397    1
   478  8221  8302    1
   479  8221  8300    1
   480  8221  8290    1
   481  2530  2607    1
   482  2530  2609    1
   483  2530  2605    1
   484  9482  9559    1
   485  9482  9561    1
   486  9482  9557    1
   487  5690  5767    1
   488  5690  5769    1
   489  5690  5765    1
   490  7589  7670    1
   491  7589  7668    1
   492  7589  7658    1
   493  8850  8927    1
   494  8850  8929    1
   495  8850  8925    1
   496  5058  5135    1
   497  5058  5137    1
   498  5058  5133    1
   499  8218  8295    1
   500  8218  8297    1
   501  8218  8293    1
   502  1921  1991    1
   503  7586  7663    1
   504  7586  7665    1
   505  7586  7661    1
   506  1289  1359    1
   507  1982  1900    1
   508  4449  4519    1
   509   657   727    1
   510  1350  1268    1
   511  3817  3887    1
   512    25    95    1
   513  4510  4428    1
   514  6977  7047    1
   515   718   636    1
   516  3185  3255    1
   517  1975  1904    1
   518  3878  3796    1
   519  6345  6415    1
   520  1963  1919    1
   521    86     4    1
   522  2553  2623    1
   523  7038  6956    1
   524  9505  9575    1
   525  1343  1272    1
   526  3246  3164    1
   527  5713  5783    1
   528  1331  1287    1
   529  1331  1920    1
   530  4503  4432    1
   531  6406  6324    1
   532  8873  8943    1
   533  4491  4447    1
   534   711   640    1
   535  2614  2532    1
   536  5081  5151    1
   537   699   655    1
   538   699  1288    1
   539  9566  9484    1
   540  3871  3800    1
   541  5774  5692    1
   542  8241  8311    1
   543  3859  3815    1
   544  3859  4448    1
   545    79     8    1
   546  7031  6960    1
   547    67    23    1
   548    67   656    1
   549  8934  8852    1
   550  7019  6975    1
   551  3239  3168    1
   552  5142  5060    1
   553  7609  7679    1
   554  3227  3183    1
   555  3227  3816    1
   556  6399  6328    1
   557  8302  8220    1
   558  6387  6343    1
   559  6387  6976    1
   560  2607  2536    1
   561  9559  9488    1
   562  2595  2551    1
   563  2595  3184    1
   564  9547  9503    1
   565  5767  5696    1
   566  7670  7588    1
   567  5755  5711    1
   568  5755  6344    1
   569  8927  8856    1
   570  8915  8871    1
   571  8915  9504    1
   572  5135  5064    1
   573  5123  5079    1
   574  5123  5712    1
   575  1980  1900    1
   576  8295  8224    1
   577  8283  8239    1
   578  8283  8872    1
   579  1348  1268    1
   580  7663  7592    1
   581  1977  1904    1
   582  7651  7607    1
   583  7651  8240    1
   584  4508  4428    1
   585   716   636    1
   586  1991  1904    1
   587  1345  1272    1
   588  3876  3796    1
   589  4505  4432    1
   590    84     4    1
   591  1359  1272    1
   592  7036  6956    1
   593   713   640    1
   594  3244  3164    1
   595  4519  4432    1
   596  3873  3800    1
   597   727   640    1
   598  6404  6324    1
   599    81     8    1
   600  7033  6960    1
   601  2612  2532    1
   602  3887  3800    1
   603  9564  9484    1
   604  3241  3168    1
   605    95     8    1
   606  5772  5692    1
   607  7047  6960    1
   608  6401  6328    1
   609  3255  3168    1
   610  8932  8852    1
   611  2609  2536    1
   612  9561  9488    1
   613  5140  5060    1
   614  6415  6328    1
   615  5769  5696    1
   616  2623  2536    1
   617  8300  8220    1
   618  9575  9488    1
   619  8929  8856    1
   620  5783  5696    1
   621  5137  5064    1
   622  7668  7588    1
   623  8943  8856    1
   624  8297  8224    1
   625  5151  5064    1
   626  1970  1932    1
   627  8311  8224    1
   628  7665  7592    1
   629  1338  1300    1
   630  7679  7592    1
   631  4498  4460    1
   632   706   668    1
   633  1973  1929    1
   634  3866  3828    1
   635    74    36    1
   636  1341  1297    1
   637  7026  6988    1
   638  3234  3196    1
   639  4501  4457    1
   640   709   665    1
   641  6394  6356    1
   642  1900  1971    1
   643  1900  2020    1
   644  2602  2564    1
   645  3869  3825    1
   646  9554  9516    1
   647    77    33    1
   648  5762  5724    1
   649  1268  1339    1
   650  1268  1388    1
   651  7029  6985    1
   652  1904  1967    1
   653  1904  2017    1
   654  3237  3193    1
   655  8922  8884    1
   656  4428  4499    1
   657  4428  4548    1
   658  5130  5092    1
   659   636   707    1
   660   636   756    1
   661  6397  6353    1
   662  1272  1335    1
   663  1272  1385    1
   664  2605  2561    1
   665  8290  8252    1
   666  3796  3867    1
   667  3796  3916    1
   668  9557  9513    1
   669  4432  4495    1
   670  4432  4545    1
   671     4    75    1
   672     4   124    1
   673  5765  5721    1
   674  6956  7027    1
   675  6956  7076    1
   676   640   703    1
   677   640   753    1
   678  7658  7620    1
   679  3164  3235    1
   680  3164  3284    1
   681  8925  8881    1
   682  3800  3863    1
   683  3800  3913    1
   684  5133  5089    1
   685  6324  6395    1
   686  6324  6444    1
   687     8    71    1
   688     8   121    1
   689  6960  7023    1
   690  6960  7073    1
   691  2532  2603    1
   692  2532  2652    1
   693  8293  8249    1
   694  9484  9555    1
   695  9484  9604    1
   696  3168  3231    1
   697  3168  3281    1
   698  5692  5763    1
   699  5692  5812    1
   700  6328  6391    1
   701  6328  6441    1
   702  7661  7617    1
   703  8852  8923    1
   704  8852  8972    1
   705  2536  2599    1
   706  2536  2649    1
   707  9488  9551    1
   708  9488  9601    1
   709  5060  5131    1
   710  5060  5180    1
   711  5696  5759    1
   712  5696  5809    1
   713  8220  8291    1
   714  8220  8340    1
   715  8856  8919    1
   716  8856  8969    1
   717  5064  5127    1
   718  5064  5177    1
   719  7588  7659    1
   720  7588  7708    1
   721  1918  1940    1
   722  8224  8287    1
   723  8224  8337    1
   724  1286  1308    1
   725  7592  7655    1
   726  7592  7705    1
   727  1916  1943    1
   728  4446  4468    1
   729   654   676    1
   730  1284  1311    1
   731  3814  3836    1
   732    22    44    1
   733  4444  4471    1
   734  6974  6996    1
   735   652   679    1
   736  3182  3204    1
   737  3812  3839    1
   738  6342  6364    1
   739    20    47    1
   740  2550  2572    1
   741  6972  6999    1
   742  9502  9524    1
   743  3180  3207    1
   744  5710  5732    1
   745  6340  6367    1
   746  8870  8892    1
   747  2548  2575    1
   748  5078  5100    1
   749  9500  9527    1
   750  5708  5735    1
   751  8238  8260    1
   752  8868  8895    1
   753  5076  5103    1
   754  7606  7628    1
   755  8236  8263    1
   756  1932  1971    1
   757  1932  1936    1
   758  7604  7631    1
   759  1300  1339    1
   760  1300  1304    1
   761  4460  4499    1
   762  4460  4464    1
   763   668   707    1
   764   668   672    1
   765  1929  1967    1
   766  1929  1933    1
   767  3828  3867    1
   768  3828  3832    1
   769    36    75    1
   770    36    40    1
   771  6988  7027    1
   772  6988  6992    1
   773  1297  1335    1
   774  1297  1301    1
   775  3196  3235    1
   776  3196  3200    1
   777  4457  4495    1
   778  4457  4461    1
   779  6356  6395    1
   780  6356  6360    1
   781   665   703    1
   782   665   669    1
   783  2564  2603    1
   784  2564  2568    1
   785  9516  9555    1
   786  9516  9520    1
   787  3825  3863    1
   788  3825  3829    1
   789  5724  5763    1
   790  5724  5728    1
   791    33    71    1
   792    33    37    1
   793  6985  7023    1
   794  6985  6989    1
   795  8884  8923    1
   796  8884  8888    1
   797  3193  3231    1
   798  3193  3197    1
   799  5092  5131    1
   800  5092  5096    1
   801  6353  6391    1
   802  6353  6357    1
   803  8252  8291    1
   804  8252  8256    1
   805  2561  2599    1
   806  2561  2565    1
   807  9513  9551    1
   808  9513  9517    2
   809  5721  5759    1
   810  5721  5725    1
   811  7620  7659    1
   812  7620  7624    1
   813  8881  8919    1
   814  8881  8885    2
   815  5089  5127    1
   816  5089  5093    1
   817  8249  8287    1
   818  8249  8253    2
   819  2020  1949    1
   820  1940  1936    1
   821  7617  7655    1
   822  7617  7621    2
   823  1388  1317    1
   824  2003  2007    1
   825  1308  1304   ar
   826  1308  1942   ar
   827  4548  4477    1
   828   756   685    1
   829  4468  4464    1
   830  1371  1375    1
   831  1943  1933   ar
   832  1943  4466   ar
   833   676   672   ar
   834   676  1310   ar
   835  3916  3845    1
   836  4531  4535    1
   837   124    53    1
   838  3836  3832   ar
   839  3836  4470   ar
   840  2017  1949    1
   841  7076  7005    1
   842   739   743    1
   843  1311  1301   ar
   844  1311  3834   ar
   845    44    40   ar
   846    44   678   ar
   847  3284  3213    1
   848  6996  6992    1
   849  3899  3903    1
   850  4471  4461   ar
   851  4471  6994   ar
   852  3204  3200   ar
   853  3204  3838   ar
   854  1385  1317    1
   855  6444  6373    1
   856   107   111    1
   857   679   669   ar
   858   679  3202   ar
   859  7059  7063    1
   860  2652  2581    1
   861  6364  6360   ar
   862  6364  6998   ar
   863  4545  4477    1
   864  9604  9533    1
   865  3267  3271    1
   866  3839  3829   ar
   867  3839  6362   ar
   868  2572  2568   ar
   869  2572  3206   ar
   870   753   685    1
   871  5812  5741    1
   872    47    37   ar
   873    47  2570   ar
   874  9524  9520    1
   875  6427  6431    1
   876  6999  6989   ar
   877  6999  9522   ar
   878  5732  5728   ar
   879  5732  6366   ar
   880  3913  3845    1
   881  8972  8901    1
   882  2635  2639    1
   883  3207  3197   ar
   884  3207  5730   ar
   885  9587  9591    1
   886   121    53    1
   887  5180  5109    1
   888  8892  8888   ar
   889  8892  9526   ar
   890  7073  7005    1
   891  5795  5799    1
   892  6367  6357   ar
   893  6367  8890   ar
   894  5100  5096   ar
   895  5100  5734   ar
   896  3281  3213    1
   897  8340  8269    1
   898  2575  2565   ar
   899  2575  5098   ar
   900  8955  8959    1
   901  9527  9517    1
   902  8260  8256   ar
   903  8260  8894   ar
   904  6441  6373    1
   905  5163  5167    1
   906  5735  5725   ar
   907  5735  8258   ar
   908  2649  2581    1
   909  7708  7637    1
   910  9601  9533    1
   911  8323  8327    1
   912  8895  8885    1
   913  7628  7624   ar
   914  7628  8262   ar
   915  5809  5741    1
   916  1936  1941    2
   917  5103  5093   ar
   918  5103  7626   ar
   919  1949  2005    1
   920  8969  8901    1
   921  7691  7695    1
   922  8263  8253    1
   923  1997  2011    1
   924  2007  2011    1
   925  2007  2013    2
   926  5177  5109    1
   927  1917  1938    1
   928  1304  1309   ar
   929  1317  1373    1
   930  8337  8269    1
   931  4464  4469    2
   932  7631  7621    1
   933  1365  1379    1
   934  4477  4533    1
   935  1375  1379   ar
   936  1375  1381   ar
   937  1285  1306    1
   938   672   677   ar
   939   685   741    1
   940  4525  4539    1
   941  4532  2013    1
   942  1933  1937   ar
   943  4535  4539    1
   944  4535  4541    2
   945  7705  7637    1
   946  4445  4466    1
   947  3832  3837   ar
   948   733   747    1
   949  3845  3901    1
   950   743   747   ar
   951   743   749   ar
   952   653   674    1
   953    40    45   ar
   954    53   109    1
   955  6992  6997    2
   956  3893  3907    1
   957  3900  1381    1
   958  1301  1305   ar
   959  7005  7061    1
   960  3903  3907   ar
   961  3903  3909   ar
   962  3813  3834    1
   963  3200  3205   ar
   964   101   115    1
   965  3213  3269    1
   966   111   115   ar
   967   111   117   ar
   968  7053  7067    1
   969  7060  4541    1
   970  4461  4465   ar
   971  7063  7067    1
   972  7063  7069    2
   973    21    42    1
   974  6973  6994    1
   975  6360  6365   ar
   976  3261  3275    1
   977  3268   749    1
   978   669   673   ar
   979  6373  6429    1
   980  3271  3275   ar
   981  3271  3277   ar
   982  3181  3202    1
   983  1913  1942    1
   984  2568  2573   ar
   985  2581  2637    1
   986  9520  9525    2
   987  6421  6435    1
   988  6428  3909    1
   989  3829  3833   ar
   990  9533  9589    1
   991  6431  6435   ar
   992  6431  6437   ar
   993  6341  6362    1
   994  5728  5733   ar
   995  2629  2643    1
   996  2636   117    1
   997    37    41   ar
   998  5741  5797    1
   999  2639  2643   ar
  1000  2639  2645   ar
  1001  9581  9595    1
  1002  9588  7069    1
  1003  6989  6993   ar
  1004  9591  9595    2
  1005  9591  9597    1
  1006  2549  2570    1
  1007  1281  1310    1
  1008  9501  9522    1
  1009  8888  8893   ar
  1010  5789  5803    1
  1011  5796  3277    1
  1012  3197  3201   ar
  1013  8901  8957    1
  1014  5799  5803   ar
  1015  5799  5805   ar
  1016  5709  5730    1
  1017  4441  4470    1
  1018  5096  5101   ar
  1019  1379  4542   ar
  1020  5109  5165    1
  1021  8949  8963    1
  1022  8956  6437    1
  1023  6357  6361   ar
  1024  8959  8963    2
  1025  8959  8965    1
  1026   649   678    1
  1027  8869  8890    1
  1028  8256  8261   ar
  1029  5157  5171    1
  1030  5164  2645    1
  1031  2565  2569   ar
  1032  8269  8325    1
  1033  5167  5171   ar
  1034  5167  5173   ar
  1035  9517  9521    1
  1036  5077  5098    1
  1037  3809  3838    1
  1038  1381  4540   ar
  1039   747  3910   ar
  1040  8317  8331    1
  1041  8324  5805    1
  1042  5725  5729   ar
  1043  1938  1934    1
  1044  8327  8331    2
  1045  8327  8333    1
  1046    17    46    1
  1047  8237  8258    1
  1048  6969  6998    1
  1049  7624  7629   ar
  1050  3907  7070   ar
  1051  7637  7693    1
  1052  8885  8889    1
  1053  3177  3206    1
  1054   749  3908   ar
  1055   115  3278   ar
  1056  7685  7699    1
  1057  7692  5173    1
  1058  5093  5097   ar
  1059  1306  1302    1
  1060  7695  7699    2
  1061  7695  7701    1
  1062  7605  7626    1
  1063  6337  6366    1
  1064  3909  7068   ar
  1065  3275  6438   ar
  1066  8253  8257    1
  1067  4466  4462   ar
  1068  2545  2574    1
  1069   117  3276   ar
  1070  9497  9526    1
  1071  6435  9598   ar
  1072   674   670    1
  1073  5705  5734    1
  1074  3277  6436   ar
  1075  2643  5806   ar
  1076  1942  1935   ar
  1077  7621  7625    1
  1078  3834  3830   ar
  1079  8865  8894    1
  1080  6437  9596   ar
  1081  5803  8966   ar
  1082    42    38    1
  1083  6994  6990   ar
  1084  2002  2009    1
  1085  5073  5102    1
  1086  2645  5804   ar
  1087  1310  1303   ar
  1088  3202  3198   ar
  1089  8233  8262    1
  1090  5805  8964   ar
  1091  5171  8334   ar
  1092  4470  4463   ar
  1093  6362  6358   ar
  1094  1370  1377    1
  1095   678   671   ar
  1096  2570  2566   ar
  1097  9522  9518   ar
  1098  4530  4537    1
  1099  7601  7630    1
  1100  5173  8332   ar
  1101  3838  3831   ar
  1102  5730  5726   ar
  1103   738   745    1
  1104    46    39    1
  1105  6998  6991   ar
  1106  8890  8886   ar
  1107  3898  3905    1
  1108  3206  3199   ar
  1109  5098  5094   ar
  1110   106   113    1
  1111  7058  7065    1
  1112  6366  6359   ar
  1113  8258  8254   ar
  1114  3266  3273    1
  1115  2574  2567    1
  1116  9526  9519   ar
  1117  6426  6433    1
  1118  2014  2000    1
  1119  2014  2008    1
  1120  5734  5727   ar
  1121  7626  7622   ar
  1122  2634  2641    1
  1123  9586  9593    1
  1124  8894  8887   ar
  1125  5794  5801    1
  1126  1382  1368    1
  1127  1382  1376    1
  1128  2012  1996    1
  1129  2012  2008    1
  1130  2005  2009   ar
  1131  2005  2015   ar
  1132  5102  5095    1
  1133  8954  8961    1
  1134  4542  4528    1
  1135  4542  4536   ar
  1136  8262  8255   ar
  1137  5162  5169    1
  1138   750   736    1
  1139   750   744    1
  1140  1380  1364    1
  1141  1380  1376    1
  1142  1373  1377   ar
  1143  1373  1383   ar
  1144  8322  8329    1
  1145  3910  3896    1
  1146  3910  3904   ar
  1147  4540  4524    1
  1148  4540  4536   ar
  1149  4533  4537   ar
  1150  4533  4543   ar
  1151  7630  7623    1
  1152   118   104    1
  1153   118   112    1
  1154   748   732    1
  1155   748   744    1
  1156   741   745   ar
  1157   741   751   ar
  1158  7070  7056    1
  1159  7070  7064   ar
  1160  7690  7697    1
  1161  3278  3264    1
  1162  3278  3272   ar
  1163  3908  3892    1
  1164  3908  3904   ar
  1165  3901  3905   ar
  1166  3901  3911   ar
  1167   116   100    1
  1168   116   112    1
  1169   109   113   ar
  1170   109   119   ar
  1171  6438  6424    1
  1172  6438  6432   ar
  1173  7068  7052    1
  1174  7068  7064   ar
  1175  7061  7065   ar
  1176  7061  7071   ar
  1177  2009  2016   ar
  1178  2646  2632    1
  1179  2646  2640    1
  1180  3276  3260    1
  1181  3276  3272   ar
  1182  3269  3273   ar
  1183  3269  3279   ar
  1184  9598  9584    1
  1185  9598  9592   ar
  1186  5806  5792    1
  1187  5806  5800   ar
  1188  6436  6420    1
  1189  6436  6432   ar
  1190  6429  6433   ar
  1191  6429  6439   ar
  1192  1377  1384   ar
  1193  2644  2628    1
  1194  2644  2640    1
  1195  2637  2641   ar
  1196  2637  2647   ar
  1197  8966  8952    1
  1198  8966  8960   ar
  1199  9596  9580    1
  1200  9596  9592   ar
  1201  9589  9593   ar
  1202  9589  9599   ar
  1203  4537  4544   ar
  1204  2008  1950    2
  1205  5174  5160    1
  1206  5174  5168    1
  1207  5804  5788    1
  1208  5804  5800   ar
  1209  5797  5801   ar
  1210  5797  5807   ar
  1211   745   752   ar
  1212  8334  8320    1
  1213  8334  8328   ar
  1214  8964  8948    1
  1215  8964  8960   ar
  1216  8957  8961   ar
  1217  8957  8967   ar
  1218  3905  3912   ar
  1219  1376  1318    2
  1220  5172  5156    1
  1221  5172  5168    1
  1222  5165  5169   ar
  1223  5165  5175   ar
  1224   113   120   ar
  1225  7065  7072   ar
  1226  4536  4478    1
  1227  7702  7688    1
  1228  7702  7696    1
  1229  8332  8316    1
  1230  8332  8328   ar
  1231  8325  8329   ar
  1232  8325  8335   ar
  1233  3273  3280   ar
  1234   744   686    2
  1235  6433  6440   ar
  1236  3904  3846    1
  1237  7700  7684    1
  1238  7700  7696    1
  1239  7693  7697   ar
  1240  7693  7703   ar
  1241  2641  2648   ar
  1242   112    54    2
  1243  9593  9600   ar
  1244  1941  1914    1
  1245  7064  7006    1
  1246  5801  5808   ar
  1247  1998  2015    1
  1248  3272  3214    1
  1249  8961  8968   ar
  1250  1309  1282    1
  1251  1309  1939   ar
  1252  6432  6374    1
  1253  5169  5176   ar
  1254  1366  1383    1
  1255  2640  2582    2
  1256  1926  1965    1
  1257  4469  4442    1
  1258  9592  9534    1
  1259  8329  8336   ar
  1260   677   650    1
  1261   677  1307   ar
  1262  4526  4543    1
  1263  5800  5742    1
  1264   734   751    1
  1265  1294  1333    1
  1266  3837  3810    1
  1267  3837  4467   ar
  1268  8960  8902    1
  1269  7697  7704   ar
  1270  2015  2010   ar
  1271    45    18    1
  1272    45   675   ar
  1273  3894  3911    1
  1274  5168  5110    2
  1275  4454  4493    1
  1276  6997  6970    1
  1277  1937  1965    1
  1278  1937  4472   ar
  1279   102   119    1
  1280   662   701    1
  1281  3205  3178    1
  1282  3205  3835   ar
  1283  7054  7071    1
  1284  8328  8270    1
  1285  1383  1378   ar
  1286  3262  3279    1
  1287  3822  3861    1
  1288  6365  6338    1
  1289  6365  6995   ar
  1290  1305  1333    1
  1291  1305  3840   ar
  1292    30    69    1
  1293  4543  4538   ar
  1294  2573  2546    1
  1295  2573  3203   ar
  1296  6422  6439    1
  1297  7696  7638    2
  1298  6982  7021    1
  1299  9525  9498    1
  1300  4465  4493    1
  1301  4465  7000   ar
  1302   751   746   ar
  1303  2630  2647    1
  1304  3190  3229    1
  1305  5733  5706    1
  1306  5733  6363   ar
  1307   673   701    1
  1308   673  3208   ar
  1309  9582  9599    1
  1310  3911  3906   ar
  1311  5790  5807    1
  1312  6350  6389    1
  1313  8893  8866    1
  1314  8893  9523   ar
  1315  3833  3861    1
  1316  3833  6368   ar
  1317   119   114   ar
  1318  2558  2597    1
  1319  7071  7066   ar
  1320  5101  5074    1
  1321  5101  5731   ar
  1322    41    69    1
  1323    41  2576   ar
  1324  8950  8967    1
  1325  9510  9549    1
  1326  6993  7021    1
  1327  6993  9528   ar
  1328  3279  3274   ar
  1329  5158  5175    1
  1330  5718  5757    1
  1331  8261  8234    1
  1332  8261  8891   ar
  1333  3201  3229    1
  1334  3201  5736   ar
  1335  6439  6434   ar
  1336  8318  8335    1
  1337  8878  8917    1
  1338  6361  6389    1
  1339  6361  8896   ar
  1340  2647  2642   ar
  1341  5086  5125    1
  1342  9599  9594   ar
  1343  7629  7602    1
  1344  7629  8259   ar
  1345  2569  2597    1
  1346  2569  5104   ar
  1347  9521  9549    1
  1348  1934  1944    2
  1349  1934  1930    1
  1350  5807  5802   ar
  1351  7686  7703    1
  1352  8246  8285    1
  1353  5729  5757    1
  1354  5729  8264   ar
  1355  8967  8962   ar
  1356  2016  1999    1
  1357  2016  2006   ar
  1358  8889  8917    1
  1359  1302  1312    2
  1360  1302  1298    1
  1361  5175  5170   ar
  1362  7614  7653    1
  1363  5097  5125    1
  1364  5097  7632   ar
  1365  4462  4472   ar
  1366  4462  4458    1
  1367  8335  8330   ar
  1368  1384  1367    1
  1369  1384  1374   ar
  1370  8257  8285    1
  1371   670   680    2
  1372   670   666    1
  1373  1950  2018    1
  1374  1950  2019    1
  1375  1935  1939   ar
  1376  1935  1931    1
  1377  4544  4527    1
  1378  4544  4534   ar
  1379  3830  3840   ar
  1380  3830  3826    1
  1381  7703  7698   ar
  1382   752   735    1
  1383   752   742   ar
  1384  7625  7653    1
  1385    38    48    2
  1386    38    34    1
  1387  1318  1386    1
  1388  1318  1387    1
  1389  6990  7000   ar
  1390  6990  6986    1
  1391  1303  1307   ar
  1392  1303  1299    1
  1393  3912  3895    1
  1394  3912  3902   ar
  1395  3198  3208   ar
  1396  3198  3194    1
  1397  4478  4546    1
  1398  4478  4547    1
  1399   120   103    1
  1400   120   110   ar
  1401  4463  4467   ar
  1402  4463  4459    1
  1403  7072  7055    1
  1404  7072  7062   ar
  1405   686   754    1
  1406   686   755    1
  1407  6358  6368   ar
  1408  6358  6354    1
  1409   671   675   ar
  1410   671   667    1
  1411  3280  3263    1
  1412  3280  3270   ar
  1413  1965  1925    1
  1414  2566  2576   ar
  1415  2566  2562    1
  1416  3846  3914    1
  1417  3846  3915    1
  1418  9518  9528   ar
  1419  9518  9514    1
  1420  3831  3835   ar
  1421  3831  3827    1
  1422  6440  6423    1
  1423  6440  6430   ar
  1424    54   122    1
  1425    54   123    1
  1426  5726  5736   ar
  1427  5726  5722    1
  1428  7006  7074    1
  1429  7006  7075    1
  1430    39    43    2
  1431    39    35    1
  1432  2648  2631    1
  1433  2648  2638   ar
  1434  6991  6995   ar
  1435  6991  6987    1
  1436  1333  1293    1
  1437  9600  9583    1
  1438  9600  9590   ar
  1439  3214  3282    1
  1440  3214  3283    1
  1441  8886  8896   ar
  1442  8886  8882    1
  1443  3199  3203   ar
  1444  3199  3195    1
  1445  5808  5791    1
  1446  5808  5798   ar
  1447  4493  4453    1
  1448  5094  5104   ar
  1449  5094  5090    1
  1450  6374  6442    1
  1451  6374  6443    1
  1452  6359  6363   ar
  1453  6359  6355    1
  1454   701   661    1
  1455  8968  8951    1
  1456  8968  8958   ar
  1457  2582  2650    1
  1458  2582  2651    1
  1459  8254  8264   ar
  1460  8254  8250    1
  1461  9534  9602    1
  1462  9534  9603    1
  1463  2567  2571    2
  1464  2567  2563    1
  1465  5176  5159    1
  1466  5176  5166   ar
  1467  9519  9523   ar
  1468  9519  9515    1
  1469  3861  3821    1
  1470  5742  5810    1
  1471  5742  5811    1
  1472  5727  5731   ar
  1473  5727  5723    1
  1474  2018  1903    1
  1475    69    29    1
  1476  8336  8319    1
  1477  8336  8326   ar
  1478  7021  6981    1
  1479  7622  7632   ar
  1480  7622  7618    1
  1481  8902  8970    1
  1482  8902  8971    1
  1483  8887  8891   ar
  1484  8887  8883    1
  1485  3229  3189    1
  1486  5110  5178    1
  1487  5110  5179    1
  1488  5095  5099    2
  1489  5095  5091    1
  1490  1386  1271    1
  1491  7704  7687    1
  1492  7704  7694   ar
  1493  6389  6349    1
  1494  2019  1899    1
  1495  8270  8338    1
  1496  8270  8339    1
  1497  1944  1915    1
  1498  2010  2006   ar
  1499  2010  1995    1
  1500  8255  8259   ar
  1501  8255  8251    1
  1502  4546  4431    1
  1503  2597  2557    1
  1504  9549  9509    1
  1505   754   639    1
  1506  5757  5717    1
  1507  1387  1267    1
  1508  7638  7706    1
  1509  7638  7707    1
  1510  1312  1283    1
  1511  1378  1374   ar
  1512  1378  1363    1
  1513  7623  7627    2
  1514  7623  7619    1
  1515  3914  3799    1
  1516  1968  1930    1
  1517  1968  1903    1
  1518  8917  8877    1
  1519  4547  4427    1
  1520  1939  1966    1
  1521  4472  4443    1
  1522  4538  4534   ar
  1523  4538  4523    1
  1524   122     7    1
  1525  7074  6959    1
  1526  5125  5085    1
  1527   755   635    1
  1528   680   651    1
  1529   746   742   ar
  1530   746   731    1
  1531  3282  3167    1
  1532  1336  1298    1
  1533  1336  1271    1
  1534  8285  8245    1
  1535  3915  3795    1
  1536  1307  1334    1
  1537  3840  3811    1
  1538  3906  3902   ar
  1539  3906  3891    1
  1540  2006  2001    1
  1541  6442  6327    1
  1542   123     3    1
  1543    48    19    1
  1544  4496  4458    1
  1545  4496  4431    1
  1546   114   110   ar
  1547   114    99    1
  1548  1972  1931    1
  1549  1972  1899    1
  1550  7075  6955    1
  1551  4467  4494    1
  1552  7000  6971    1
  1553  7066  7062   ar
  1554  7066  7051    1
  1555  2650  2535    1
  1556   704   666    1
  1557   704   639    1
  1558  9602  9487    1
  1559  7653  7613    1
  1560  3283  3163    1
  1561   675   702    1
  1562  3208  3179    1
  1563  3274  3270   ar
  1564  3274  3259    1
  1565  1374  1369    1
  1566  5810  5695    1
  1567  3864  3826    1
  1568  3864  3799    1
  1569  1340  1299    1
  1570  1340  1267    1
  1571  6443  6323    1
  1572  3835  3862    1
  1573  6368  6339    1
  1574  6434  6430   ar
  1575  6434  6419    1
  1576  4534  4529    1
  1577    72    34    1
  1578    72     7    1
  1579  8970  8855    1
  1580  2651  2531    1
  1581    43    70    1
  1582  2576  2547    1
  1583  7024  6986    1
  1584  7024  6959    1
  1585  2642  2638   ar
  1586  2642  2627    1
  1587  4500  4459    1
  1588  4500  4427    1
  1589  9603  9483    1
  1590   742   737    1
  1591  6995  7022    1
  1592  9528  9499    1
  1593  9594  9590   ar
  1594  9594  9579    1
  1595  5178  5063    1
  1596  3232  3194    1
  1597  3232  3167    1
  1598   708   667    1
  1599   708   635    1
  1600  5811  5691    1
  1601  3203  3230    1
  1602  5736  5707    1
  1603  5802  5798   ar
  1604  5802  5787    1
  1605  3902  3897    1
  1606  8338  8223    1
  1607  6392  6354    1
  1608  6392  6327    1
  1609  3868  3827    1
  1610  3868  3795    1
  1611  8971  8851    1
  1612   110   105    1
  1613  6363  6390    1
  1614  8896  8867    1
  1615  8962  8958   ar
  1616  8962  8947    1
  1617  7062  7057    1
  1618  2600  2562    1
  1619  2600  2535    1
  1620    76    35    1
  1621    76     3    1
  1622  5179  5059    1
  1623  2571  2598    1
  1624  5104  5075    1
  1625  9552  9514    1
  1626  9552  9487    1
  1627  5170  5166   ar
  1628  5170  5155    1
  1629  7028  6987    1
  1630  7028  6955    1
  1631  3270  3265    1
  1632  9523  9550    1
  1633  7706  7591    1
  1634  5760  5722    1
  1635  5760  5695    1
  1636  3236  3195    1
  1637  3236  3163    1
  1638  8339  8219    1
  1639  5731  5758    1
  1640  8264  8235    1
  1641  8330  8326   ar
  1642  8330  8315    1
  1643  6430  6425    1
  1644  8920  8882    1
  1645  8920  8855    1
  1646  6396  6355    1
  1647  6396  6323    1
  1648  2638  2633    1
  1649  8891  8918    1
  1650  9590  9585    1
  1651  5128  5090    1
  1652  5128  5063    1
  1653  2604  2563    1
  1654  2604  2531    1
  1655  7707  7587    1
  1656  5099  5126    1
  1657  7632  7603    1
  1658  7698  7694   ar
  1659  7698  7683    1
  1660  9556  9515    1
  1661  9556  9483    1
  1662  5798  5793    1
  1663  8288  8250    1
  1664  8288  8223    1
  1665  5764  5723    1
  1666  5764  5691    1
  1667  8259  8286    1
  1668  8958  8953    1
  1669  1930  1974    1
  1670  8924  8883    1
  1671  8924  8851    1
  1672  5166  5161    1
  1673  7656  7618    1
  1674  7656  7591    1
  1675  5132  5091    1
  1676  5132  5059    1
  1677  7627  7654    1
  1678  8326  8321    1
  1679  1298  1342    1
  1680  8292  8251    1
  1681  8292  8219    1
  1682  4458  4502    1
  1683  1931  1969    1
  1684  7694  7689    1
  1685   666   710    1
  1686  7660  7619    1
  1687  7660  7587    1
  1688  3826  3870    1
  1689  1299  1337    1
  1690    34    78    1
  1691  6986  7030    1
  1692  4459  4497    1
  1693  3194  3238    1
  1694   667   705    1
  1695  6354  6398    1
  1696  3827  3865    1
  1697  2562  2606    1
  1698  9514  9558    1
  1699    35    73    1
  1700  6987  7025    1
  1701  5722  5766    1
  1702  3195  3233    1
  1703  8882  8926    1
  1704  6355  6393    1
  1705  5090  5134    1
  1706  2563  2601    1
  1707  9515  9553    1
  1708  8250  8294    1
  1709  5723  5761    1
  1710  8883  8921    1
  1711  7618  7662    1
  1712  5091  5129    1
  1713  8251  8289    1
  1714  7619  7657    1
  1715  1966  1927    1
  1716  1966  1928    1
  1717  1903  1992    1
  1718  1903  1976    1
  1719  1903  1978    1
  1720  1334  1295    1
  1721  1334  1296    1
  1722  1271  1360    1
  1723  1271  1344    1
  1724  1271  1346    1
  1725  4494  4455    1
  1726  4494  4456    1
  1727  1899  1981    1
  1728  1899  1979    1
  1729   702   663    1
  1730   702   664    1
  1731  4431  4520    1
  1732  4431  4504    1
  1733  4431  4506    1
  1734   639   728    1
  1735   639   712    1
  1736   639   714    1
  1737  3862  3823    1
  1738  3862  3824    1
  1739  1267  1349    1
  1740  1267  1347    1
  1741    70    31    1
  1742    70    32    1
  1743  3799  3888    1
  1744  3799  3872    1
  1745  3799  3874    1
  1746  7022  6983    1
  1747  7022  6984    1
  1748  4427  4509    1
  1749  4427  4507    1
  1750     7    96    1
  1751     7    80    1
  1752     7    82    1
  1753  3230  3191    1
  1754  3230  3192    1
  1755  6959  7048    1
  1756  6959  7032    1
  1757  6959  7034    1
  1758   635   717    1
  1759   635   715    1
  1760  3167  3256    1
  1761  3167  3240    1
  1762  3167  3242    1
  1763  6390  6351    1
  1764  6390  6352    1
  1765  3795  3877    1
  1766  3795  3875    1
  1767  2598  2559    1
  1768  2598  2560    1
  1769  6327  6416    1
  1770  6327  6400    1
  1771  6327  6402    1
  1772  9550  9511    1
  1773  9550  9512    1
  1774     3    85    1
  1775     3    83    1
  1776  1974  1897    1
  1777  6955  7037    1
  1778  6955  7035    1
  1779  2535  2624    1
  1780  2535  2608    1
  1781  2535  2610    1
  1782  5758  5719    1
  1783  5758  5720    1
  1784  9487  9576    1
  1785  9487  9560    1
  1786  9487  9562    1
  1787  3163  3245    1
  1788  3163  3243    1
  1789  5695  5784    1
  1790  5695  5768    1
  1791  5695  5770    1
  1792  8918  8879    1
  1793  8918  8880    1
  1794  1342  1265    1
  1795  6323  6405    1
  1796  6323  6403    1
  1797  5126  5087    1
  1798  5126  5088    1
  1799  8855  8944    1
  1800  8855  8928    1
  1801  8855  8930    1
  1802  2531  2613    1
  1803  2531  2611    1
  1804  4502  4425    1
  1805  9483  9565    1
  1806  9483  9563    1
  1807  5063  5152    1
  1808  5063  5136    1
  1809  5063  5138    1
  1810  8286  8247    1
  1811  8286  8248    1
  1812   710   633    1
  1813  5691  5773    1
  1814  5691  5771    1
  1815  1969  1902    1
  1816  8223  8312    1
  1817  8223  8296    1
  1818  8223  8298    1
  1819  3870  3793    1
  1820  8851  8933    1
  1821  8851  8931    1
  1822  7654  7615    1
  1823  7654  7616    1
  1824    78     1    1
  1825  1923  1964    1
  1826  5059  5141    1
  1827  5059  5139    1
  1828  7030  6953    1
  1829  1337  1270    1
  1830  7591  7680    1
  1831  7591  7664    1
  1832  7591  7666    1
  1833  3238  3161    1
  1834  8219  8301    1
  1835  8219  8299    1
  1836  4497  4430    1
  1837  1291  1332    1
  1838  6398  6321    1
  1839   705   638    1
  1840  2606  2529    1
  1841  4451  4492    1
  1842  7587  7669    1
  1843  7587  7667    1
  1844  9558  9481    1
  1845  3865  3798    1
  1846   659   700    1
  1847  5766  5689    1
  1848    73     6    1
  1849  7025  6958    1
  1850  3819  3860    1
  1851  8926  8849    1
  1852  3233  3166    1
  1853    27    68    1
  1854  5134  5057    1
  1855  6979  7020    1
  1856  6393  6326    1
  1857  3187  3228    1
  1858  8294  8217    1
  1859  2601  2534    1
  1860  9553  9486    1
  1861  6347  6388    1
  1862  5761  5694    1
  1863  1992  1922    1
  1864  2555  2596    1
  1865  7662  7585    1
  1866  9507  9548    1
  1867  8921  8854    1
  1868  5715  5756    1
  1869  5129  5062    1
  1870  1360  1290    1
  1871  8875  8916    1
  1872  1976  1897    1
  1873  8289  8222    1
  1874  4520  4450    1
  1875  5083  5124    1
  1876   728   658    1
  1877  8243  8284    1
  1878  1344  1265    1
  1879  7657  7590    1
  1880  3888  3818    1
  1881    96    26    1
  1882  4504  4425    1
  1883  7048  6978    1
  1884  7611  7652    1
  1885   712   633    1
  1886  3256  3186    1
  1887  1981  1902    1
  1888  3872  3793    1
  1889  6416  6346    1
  1890    80     1    1
  1891  2624  2554    1
  1892  7032  6953    1
  1893  1349  1270    1
  1894  9576  9506    1
  1895  3240  3161    1
  1896  5784  5714    1
  1897  4509  4430    1
  1898  6400  6321    1
  1899   717   638    1
  1900  8944  8874    1
  1901  2608  2529    1
  1902  5152  5082    1
  1903  9560  9481    1
  1904  3877  3798    1
  1905  5768  5689    1
  1906    85     6    1
  1907  8312  8242    1
  1908  7037  6958    1
  1909  8928  8849    1
  1910  3245  3166    1
  1911  5136  5057    1
  1912  7680  7610    1
  1913  6405  6326    1
  1914  8296  8217    1
  1915  2613  2534    1
  1916  9565  9486    1
  1917  5773  5694    1
  1918  1924  1964    1
  1919  7664  7585    1
  1920  8933  8854    1
  1921  1964  1959    1
  1922  5141  5062    1
  1923  1292  1332    1
  1924  1978  1897    1
  1925  8301  8222    1
  1926  4452  4492    1
  1927  1332  1327    1
  1928   660   700    1
  1929  4492  4487    1
  1930  1346  1265    1
  1931  7669  7590    1
  1932  3820  3860    1
  1933   700   695    1
  1934  4506  4425    1
  1935    28    68    1
  1936  1979  1902    1
  1937  6980  7020    1
  1938  3860  3855    1
  1939   714   633    1
  1940  3188  3228    1
  1941    68    63    1
  1942  7020  7015    1
  1943  3874  3793    1
  1944  1347  1270    1
  1945  6348  6388    1
  1946  3228  3223    1
  1947    82     1    1
  1948  7034  6953    1
  1949  2556  2596    1
  1950  4507  4430    1
  1951  9508  9548    1
  1952  6388  6383    1
  1953  3242  3161    1
  1954   715   638    1
  1955  5716  5756    1
  1956  2596  2591    1
  1957  9548  9543    1
  1958  6402  6321    1
  1959  3875  3798    1
  1960  8876  8916    1
  1961  5756  5751    1
  1962  2610  2529    1
  1963    83     6    1
  1964  9562  9481    1
  1965  1907  1958    1
  1966  5084  5124    1
  1967  7035  6958    1
  1968  8916  8911    1
  1969  5770  5689    1
  1970  3243  3166    1
  1971  8244  8284    1
  1972  5124  5119    1
  1973  8930  8849    1
  1974  1275  1326    1
  1975  6403  6326    1
  1976  8284  8279    1
  1977  5138  5057    1
  1978  2611  2534    1
  1979  4435  4486    1
  1980  7612  7652    1
  1981  9563  9486    1
  1982  8298  8217    1
  1983   643   694    1
  1984  5771  5694    1
  1985  7652  7647    1
  1986  1909  1961    1
  1987  3803  3854    1
  1988  8931  8854    1
  1989  1905  1956    1
  1990  7666  7585    1
  1991    11    62    1
  1992  5139  5062    1
  1993  6963  7014    1
  1994  1277  1329    1
  1995  3171  3222    1
  1996  8299  8222    1
  1997  4437  4489    1
  1998  1273  1324    1
  1999  6331  6382    1
  2000   645   697    1
  2001  4433  4484    1
  2002  2539  2590    1
  2003  7667  7590    1
  2004  9491  9542    1
  2005  3805  3857    1
  2006   641   692    1
  2007  5699  5750    1
  2008    13    65    1
  2009  6965  7017    1
  2010  3801  3852    1
  2011  8859  8910    1
  2012  3173  3225    1
  2013     9    60    1
  2014  6961  7012    1
  2015  5067  5118    1
  2016  6333  6385    1
  2017  3169  3220    1
  2018  8227  8278    1
  2019  1897  1988    1
  2020  1897  1990    1
  2021  2541  2593    1
  2022  9493  9545    1
  2023  6329  6380    1
  2024  5701  5753    1
  2025  2537  2588    1
  2026  9489  9540    1
  2027  7595  7646    1
  2028  1265  1356    1
  2029  1265  1358    1
  2030  8861  8913    1
  2031  5697  5748    1
  2032  4425  4516    1
  2033  4425  4518    1
  2034  5069  5121    1
  2035  8857  8908    1
  2036   633   724    1
  2037   633   726    1
  2038  8229  8281    1
  2039  5065  5116    1
  2040  1902  1985    1
  2041  1902  1983    1
  2042  1902  2151    1
  2043  3793  3884    1
  2044  3793  3886    1
  2045  8225  8276    1
  2046     1    92    1
  2047     1    94    1
  2048  6953  7044    1
  2049  6953  7046    1
  2050  7597  7649    1
  2051  1270  1353    1
  2052  1270  1351    1
  2053  1270  1519    1
  2054  3161  3252    1
  2055  3161  3254    1
  2056  7593  7644    1
  2057  4430  4513    1
  2058  4430  4511    1
  2059  4430  4679    1
  2060  6321  6412    1
  2061  6321  6414    1
  2062   638   721    1
  2063   638   719    1
  2064   638   887    1
  2065  2529  2620    1
  2066  2529  2622    1
  2067  9481  9572    1
  2068  9481  9574    1
  2069  3798  3881    1
  2070  3798  3879    1
  2071  3798  4047    1
  2072  5689  5780    1
  2073  5689  5782    1
  2074     6    89    1
  2075     6    87    1
  2076     6   255    1
  2077  6958  7041    1
  2078  6958  7039    1
  2079  6958  7207    1
  2080  8849  8940    1
  2081  8849  8942    1
  2082  3166  3249    1
  2083  3166  3247    1
  2084  3166  3415    1
  2085  5057  5148    1
  2086  5057  5150    1
  2087  6326  6409    1
  2088  6326  6407    1
  2089  6326  6575    1
  2090  8217  8308    1
  2091  8217  8310    1
  2092  2534  2617    1
  2093  2534  2615    1
  2094  2534  2783    1
  2095  9486  9569    1
  2096  9486  9567    1
  2097  9486  9735    1
  2098  5694  5777    1
  2099  5694  5775    1
  2100  5694  5943    1
  2101  7585  7676    1
  2102  7585  7678    1
  2103  8854  8937    1
  2104  8854  8935    1
  2105  8854  9103    1
  2106  5062  5145    1
  2107  5062  5143    1
  2108  5062  5311    1
  2109  8222  8305    1
  2110  8222  8303    1
  2111  8222  8471    1
  2112  1958  2106    1
  2113  1959  4486   ar
  2114  1959  2105   ar
  2115  7590  7673    1
  2116  7590  7671    1
  2117  7590  7839    1
  2118  1326  1474    1
  2119  1327  3854   ar
  2120  1327  1473   ar
  2121  4486  4634   ar
  2122  4487  7014   ar
  2123  4487  4633   ar
  2124   694   842    1
  2125   695  3222   ar
  2126   695   841   ar
  2127  1988  2112    1
  2128  3854  4002   ar
  2129  3855  6382   ar
  2130  3855  4001   ar
  2131  1956  2104    1
  2132  1961  1324   ar
  2133  1961  2103   ar
  2134    62   210    1
  2135  7014  7162   ar
  2136    63  2590   ar
  2137    63   209   ar
  2138  1356  1480    1
  2139  7015  9542   ar
  2140  7015  7161   ar
  2141  3222  3370   ar
  2142  1985  2111    1
  2143  1983  2109    1
  2144  1990  2110    1
  2145  3223  5750   ar
  2146  3223  3369   ar
  2147  1324  1472   ar
  2148  1329   692   ar
  2149  1329  1471   ar
  2150  4516  4640    1
  2151  6382  6530   ar
  2152   724   848    1
  2153  6383  8910   ar
  2154  6383  6529   ar
  2155  4484  4632    1
  2156  4489  3852   ar
  2157  4489  4631   ar
  2158  2590  2738   ar
  2159  1353  1479    1
  2160  1351  1477    1
  2161  9542  9690   ar
  2162  1358  1478    1
  2163  2591  5118   ar
  2164  2591  2737   ar
  2165   692   840   ar
  2166   697    60   ar
  2167   697   839   ar
  2168  3884  4008    1
  2169  9543  9689    1
  2170  5750  5898   ar
  2171  4513  4639    1
  2172  4511  4637    1
  2173    92   216    1
  2174  4518  4638    1
  2175  5751  8278   ar
  2176  5751  5897   ar
  2177  3852  4000   ar
  2178  3857  3220   ar
  2179  3857  3999   ar
  2180  7044  7168    1
  2181   721   847    1
  2182   719   845    1
  2183  8910  9058   ar
  2184   726   846    1
  2185    60   208   ar
  2186    65   207    1
  2187  3252  3376    1
  2188  8911  9057    1
  2189  7012  7160    1
  2190  7017  6380   ar
  2191  7017  7159   ar
  2192  5118  5266   ar
  2193  3881  4007    1
  2194  3879  4005    1
  2195  3886  4006    1
  2196  5119  7646   ar
  2197  5119  5265   ar
  2198  3220  3368   ar
  2199  3225  2588   ar
  2200  3225  3367   ar
  2201  6412  6536    1
  2202    89   215    1
  2203    87   213    1
  2204  8278  8426   ar
  2205  7041  7167    1
  2206    94   214    1
  2207  7039  7165    1
  2208  2620  2744    1
  2209  7046  7166    1
  2210  8279  8425    1
  2211  6380  6528   ar
  2212  6385  5748   ar
  2213  6385  6527   ar
  2214  9572  9696    1
  2215  3249  3375    1
  2216  3247  3373    1
  2217  3254  3374    1
  2218  2588  2736   ar
  2219  2593  2735    1
  2220  5780  5904    1
  2221  9540  9688    1
  2222  9545  8908   ar
  2223  9545  9687   ar
  2224  7646  7794   ar
  2225  6409  6535    1
  2226  6407  6533    1
  2227  6414  6534    1
  2228  7647  7793    1
  2229  5748  5896   ar
  2230  5753  5116   ar
  2231  5753  5895   ar
  2232  8940  9064    1
  2233  2617  2743    1
  2234  2615  2741    1
  2235  9569  9695    1
  2236  2622  2742    1
  2237  9567  9693    1
  2238  5148  5272    1
  2239  9574  9694    1
  2240  8908  9056   ar
  2241  8913  8276   ar
  2242  8913  9055   ar
  2243  5777  5903    1
  2244  5775  5901    1
  2245  5782  5902    1
  2246  5116  5264   ar
  2247  5121  5263    1
  2248  8308  8432    1
  2249  8937  9063    1
  2250  8935  9061    1
  2251  8942  9062    1
  2252  8276  8424   ar
  2253  8281  7644   ar
  2254  8281  8423   ar
  2255  5145  5271    1
  2256  5143  5269    1
  2257  5150  5270    1
  2258  7676  7800    1
  2259  8305  8431    1
  2260  8303  8429    1
  2261  8310  8430    1
  2262  7644  7792   ar
  2263  7649  7791    1
  2264  7673  7799    1
  2265  7671  7797    1
  2266  7678  7798    1
  2267  2069  2152    1
  2268  2106  2112    2
  2269  2106  2118    1
  2270  2105  2111    1
  2271  2105  2115   ar
  2272  1437  1520    1
  2273  2152  2059    1
  2274  2112  2144    1
  2275  4597  4680    1
  2276  1474  1480    2
  2277  1474  1486    1
  2278  2111  2145    1
  2279  1473  1479    1
  2280  1473  1483   ar
  2281   805   888    1
  2282  1520  1427    1
  2283  1480  1512    1
  2284  4634  4640    1
  2285  4634  4646   ar
  2286  4633  4639    1
  2287  4633  4643   ar
  2288  3965  4048    1
  2289  4680  4587    1
  2290   842   848    2
  2291   842   854    1
  2292  4640  4672    1
  2293  2109  2103    1
  2294  2109  2147    1
  2295  1479  1513    1
  2296   841   847    1
  2297   841   851   ar
  2298   173   256    1
  2299  2110  2104    2
  2300  2110  2142    1
  2301   888   795    1
  2302   848   880    1
  2303  7125  7208    1
  2304  2103  2113   ar
  2305  4002  4008    1
  2306  4002  4014   ar
  2307  4639  4673    1
  2308  4001  4007    1
  2309  4001  4011   ar
  2310  3333  3416    1
  2311  4048  3955    1
  2312   210   216    2
  2313   210   222    1
  2314  2104  2120    1
  2315  4008  4040    1
  2316  1477  1471    1
  2317  1477  1515    1
  2318  7162  7168    1
  2319  7162  7174   ar
  2320   847   881    1
  2321   209   215    1
  2322   209   219   ar
  2323  1478  1472    1
  2324  1478  1510    1
  2325  2151  2070    1
  2326   256   163    1
  2327   216   248    1
  2328  7161  7167    1
  2329  7161  7171   ar
  2330  6493  6576    1
  2331  1471  1481   ar
  2332  7208  7115    1
  2333  3370  3376    1
  2334  3370  3382   ar
  2335  7168  7200    1
  2336  4637  4631    1
  2337  4637  4675    1
  2338  4007  4041    1
  2339  3369  3375    1
  2340  3369  3379   ar
  2341  2701  2784    1
  2342  4638  4632    2
  2343  4638  4670    1
  2344  3416  3323    1
  2345  1472  1488   ar
  2346  3376  3408    1
  2347  9653  9736    1
  2348  4631  4641   ar
  2349   845   839    1
  2350   845   883    1
  2351  6530  6536    1
  2352  6530  6542   ar
  2353   215   249    1
  2354  7167  7201    1
  2355   846   840    1
  2356   846   878    1
  2357  1519  1438    1
  2358  6529  6535    1
  2359  6529  6539   ar
  2360  5861  5944    1
  2361   839   849   ar
  2362  6576  6483    1
  2363  2738  2744    1
  2364  2738  2750   ar
  2365  4632  4648    1
  2366  6536  6568    1
  2367  4005  3999    1
  2368  4005  4043    1
  2369  9690  9696    1
  2370  9690  9702   ar
  2371  3375  3409    1
  2372  2737  2743    1
  2373  2737  2747   ar
  2374  4006  4000    1
  2375  4006  4038    1
  2376  4679  4598    1
  2377  2784  2691    1
  2378   840   856   ar
  2379  2744  2776    1
  2380  9689  9695    2
  2381  9689  9699    1
  2382  9021  9104    1
  2383  3999  4009   ar
  2384   213   207    2
  2385   213   251    1
  2386  9736  9643    1
  2387  5898  5904    1
  2388  5898  5910   ar
  2389  9696  9728    1
  2390  7165  7159    1
  2391  7165  7203    1
  2392  6535  6569    1
  2393   214   208    1
  2394   214   246    1
  2395   887   806    1
  2396  5897  5903    1
  2397  5897  5907   ar
  2398  5229  5312    1
  2399  7166  7160    2
  2400  7166  7198    1
  2401   207   217    1
  2402  5944  5851    1
  2403  4000  4016   ar
  2404  5904  5936    1
  2405  7159  7169   ar
  2406  3373  3367    1
  2407  3373  3411    1
  2408  9058  9064    1
  2409  9058  9070   ar
  2410  2743  2777    1
  2411  9695  9729    1
  2412  3374  3368    1
  2413  3374  3406    1
  2414  4047  3966    1
  2415   208   224   ar
  2416  9057  9063    2
  2417  9057  9067    1
  2418  8389  8472    1
  2419  3367  3377   ar
  2420  9104  9011    1
  2421  5266  5272    1
  2422  5266  5278   ar
  2423  7160  7176    1
  2424  9064  9096    1
  2425  6533  6527    1
  2426  6533  6571    1
  2427  5903  5937    1
  2428   255   174    1
  2429  5265  5271    1
  2430  5265  5275   ar
  2431  6534  6528    1
  2432  6534  6566    1
  2433  7207  7126    1
  2434  5312  5219    1
  2435  3368  3384   ar
  2436  5272  5304    1
  2437  6527  6537   ar
  2438  2741  2735    2
  2439  2741  2779    1
  2440  8426  8432    1
  2441  8426  8438   ar
  2442  9693  9687    1
  2443  9693  9731    1
  2444  9063  9097    1
  2445  2742  2736    1
  2446  2742  2774    1
  2447  3415  3334    1
  2448  8425  8431    2
  2449  8425  8435    1
  2450  7757  7840    1
  2451  9694  9688    2
  2452  9694  9726    1
  2453  2735  2745    1
  2454  8472  8379    1
  2455  6528  6544   ar
  2456  8432  8464    1
  2457  9687  9697   ar
  2458  5901  5895    1
  2459  5901  5939    1
  2460  5271  5305    1
  2461  5902  5896    1
  2462  5902  5934    1
  2463  6575  6494    1
  2464  2736  2752   ar
  2465  5895  5905   ar
  2466  7794  7800    1
  2467  7794  7806   ar
  2468  9688  9704    1
  2469  9061  9055    1
  2470  9061  9099    1
  2471  8431  8465    1
  2472  2783  2702    1
  2473  7793  7799    2
  2474  7793  7803    1
  2475  9062  9056    1
  2476  9062  9094    1
  2477  9735  9654    1
  2478  7840  7747    1
  2479  5896  5912   ar
  2480  7800  7832    1
  2481  9055  9065   ar
  2482  5269  5263    2
  2483  5269  5307    1
  2484  5270  5264    1
  2485  5270  5302    1
  2486  5943  5862    1
  2487  5263  5273    1
  2488  9056  9072   ar
  2489  8429  8423    1
  2490  8429  8467    1
  2491  7799  7833    1
  2492  8430  8424    1
  2493  8430  8462    1
  2494  9103  9022    1
  2495  5264  5280   ar
  2496  8423  8433   ar
  2497  5311  5230    1
  2498  8424  8440   ar
  2499  7797  7791    2
  2500  7797  7835    1
  2501  7798  7792    1
  2502  7798  7830    1
  2503  8471  8390    1
  2504  7791  7801    1
  2505  7792  7808   ar
  2506  7839  7758    1
  2507  2144  2059    1
  2508  2118  2068    1
  2509  2145  2056    1
  2510  1512  1427    1
  2511  2142  2059    1
  2512  2147  2056    1
  2513  2115  4646   ar
  2514  2115  2066    1
  2515  4672  4587    1
  2516  1486  1436    1
  2517  1513  1424    1
  2518   880   795    1
  2519  1510  1427    1
  2520  1515  1424    1
  2521  4646  4596    1
  2522  4673  4584    1
  2523  1483  4014   ar
  2524  1483  1434    1
  2525  4040  3955    1
  2526  4670  4587    1
  2527   854   804    1
  2528   881   792    1
  2529  4675  4584    1
  2530   248   163    1
  2531   878   795    1
  2532  4643  7174   ar
  2533  4643  4594    1
  2534  7200  7115    1
  2535   883   792    1
  2536  4014  3964    1
  2537  4041  3952    1
  2538   851  3382   ar
  2539   851   802    1
  2540  3408  3323    1
  2541  4038  3955    1
  2542  2113  1488   ar
  2543  2113  2064    1
  2544   222   172    1
  2545   249   160    1
  2546  4043  3952    1
  2547  7174  7124    1
  2548  7201  7112    1
  2549   246   163    1
  2550  4011  6542   ar
  2551  4011  3962    1
  2552  2120  2121    1
  2553  6568  6483    1
  2554  7198  7115    1
  2555   251   160    1
  2556  3382  3332    1
  2557  3409  3320    1
  2558  7203  7112    1
  2559   219  2750   ar
  2560   219   170    1
  2561  2776  2691    1
  2562  3406  3323    1
  2563  1481   856   ar
  2564  1481  1432    1
  2565  7171  9702   ar
  2566  7171  7122    1
  2567  9728  9643    1
  2568  3411  3320    1
  2569  6542  6492    1
  2570  6569  6480    1
  2571  3379  5910   ar
  2572  3379  3330    1
  2573  1488  1489    1
  2574  5936  5851    1
  2575  6566  6483    1
  2576  4641  4016   ar
  2577  4641  4592    1
  2578  2750  2700    1
  2579  2777  2688    1
  2580  6571  6480    1
  2581  9702  9652    1
  2582  9729  9640    1
  2583  2774  2691    1
  2584   849   224   ar
  2585   849   800    1
  2586  6539  9070   ar
  2587  6539  6490    1
  2588  4648  4649    1
  2589  9096  9011    1
  2590  9726  9643    1
  2591  2779  2688    1
  2592  5910  5860    1
  2593  5937  5848    1
  2594  9731  9640    1
  2595  2747  5278   ar
  2596  2747  2698    1
  2597   856   857    1
  2598  5304  5219    1
  2599  5934  5851    1
  2600  4009  3384   ar
  2601  4009  3960    1
  2602  9699  9650    1
  2603  5939  5848    1
  2604  9070  9020    1
  2605  9097  9008    1
  2606   217   168    1
  2607  5907  8438   ar
  2608  5907  5858    1
  2609  4016  4017    1
  2610  8464  8379    1
  2611  9094  9011    1
  2612  7169  6544   ar
  2613  7169  7120    1
  2614  5278  5228    1
  2615  5305  5216    1
  2616  9099  9008    1
  2617   224   225    1
  2618  5302  5219    1
  2619  3377  2752   ar
  2620  3377  3328    1
  2621  9067  9018    1
  2622  7176  7177    1
  2623  5307  5216    1
  2624  8438  8388    1
  2625  8465  8376    1
  2626  5275  7806   ar
  2627  5275  5226    1
  2628  3384  3385    1
  2629  7832  7747    1
  2630  8462  8379    1
  2631  6537  5912   ar
  2632  6537  6488    1
  2633  8467  8376    1
  2634  2745  2696    1
  2635  8435  8386    1
  2636  6544  6545    1
  2637  9697  9072   ar
  2638  9697  9648    1
  2639  7806  7756    1
  2640  7833  7744    1
  2641  2752  2753    1
  2642  7830  7747    1
  2643  5905  5280   ar
  2644  5905  5856    1
  2645  9704  9705    1
  2646  7835  7744    1
  2647  7803  7754    1
  2648  5912  5913    1
  2649  9065  8440   ar
  2650  9065  9016    1
  2651  5273  5224    1
  2652  9072  9073    1
  2653  5280  5281    1
  2654  8433  7808   ar
  2655  8433  8384    1
  2656  8440  8441    1
  2657  7801  7752    1
  2658  2059  2140    1
  2659  2059  2138    1
  2660  2059  2128    1
  2661  7808  7809    1
  2662  1427  1508    1
  2663  1427  1506    1
  2664  1427  1496    1
  2665  4587  4668    1
  2666  4587  4666    1
  2667  4587  4656    1
  2668   795   876    1
  2669   795   874    1
  2670   795   864    1
  2671  2056  2133    1
  2672  2056  2135    1
  2673  2056  2131    1
  2674  3955  4036    1
  2675  3955  4034    1
  2676  3955  4024    1
  2677   163   244    1
  2678   163   242    1
  2679   163   232    1
  2680  7115  7196    1
  2681  7115  7194    1
  2682  7115  7184    1
  2683  1424  1501    1
  2684  1424  1503    1
  2685  1424  1499    1
  2686  3323  3404    1
  2687  3323  3402    1
  2688  3323  3392    1
  2689  4584  4661    1
  2690  4584  4663    1
  2691  4584  4659    1
  2692  6483  6564    1
  2693  6483  6562    1
  2694  6483  6552    1
  2695   792   869    1
  2696   792   871    1
  2697   792   867    1
  2698  2691  2772    1
  2699  2691  2770    1
  2700  2691  2760    1
  2701  9643  9724    1
  2702  9643  9722    1
  2703  9643  9712    1
  2704  3952  4029    1
  2705  3952  4031    1
  2706  3952  4027    1
  2707  5851  5932    1
  2708  5851  5930    1
  2709  5851  5920    1
  2710   160   237    1
  2711   160   239    1
  2712   160   235    1
  2713  7112  7189    1
  2714  7112  7191    1
  2715  7112  7187    1
  2716  9011  9092    1
  2717  9011  9090    1
  2718  9011  9080    1
  2719  3320  3397    1
  2720  3320  3399    1
  2721  3320  3395    1
  2722  5219  5300    1
  2723  5219  5298    1
  2724  5219  5288    1
  2725  6480  6557    1
  2726  6480  6559    1
  2727  6480  6555    1
  2728  8379  8460    1
  2729  8379  8458    1
  2730  8379  8448    1
  2731  2688  2765    1
  2732  2688  2767    1
  2733  2688  2763    1
  2734  9640  9717    1
  2735  9640  9719    1
  2736  9640  9715    1
  2737  5848  5925    1
  2738  5848  5927    1
  2739  5848  5923    1
  2740  7747  7828    1
  2741  7747  7826    1
  2742  7747  7816    1
  2743  9008  9085    1
  2744  9008  9087    1
  2745  9008  9083    1
  2746  5216  5293    1
  2747  5216  5295    1
  2748  5216  5291    1
  2749  8376  8453    1
  2750  8376  8455    1
  2751  8376  8451    1
  2752  2079  2149    1
  2753  7744  7821    1
  2754  7744  7823    1
  2755  7744  7819    1
  2756  1447  1517    1
  2757  2140  2058    1
  2758  4607  4677    1
  2759   815   885    1
  2760  1508  1426    1
  2761  3975  4045    1
  2762   183   253    1
  2763  4668  4586    1
  2764  7135  7205    1
  2765   876   794    1
  2766  3343  3413    1
  2767  2133  2062    1
  2768  4036  3954    1
  2769  6503  6573    1
  2770  2121  2077    1
  2771   244   162    1
  2772  2711  2781    1
  2773  7196  7114    1
  2774  9663  9733    1
  2775  1501  1430    1
  2776  3404  3322    1
  2777  5871  5941    1
  2778  1489  1445    1
  2779  1489  2078    1
  2780  4661  4590    1
  2781  6564  6482    1
  2782  9031  9101    1
  2783  4649  4605    1
  2784   869   798    1
  2785  2772  2690    1
  2786  5239  5309    1
  2787   857   813    1
  2788   857  1446    1
  2789  9724  9642    1
  2790  4029  3958    1
  2791  5932  5850    1
  2792  8399  8469    1
  2793  4017  3973    1
  2794  4017  4606    1
  2795   237   166    1
  2796  7189  7118    1
  2797   225   181    1
  2798   225   814    1
  2799  9092  9010    1
  2800  7177  7133    1
  2801  3397  3326    1
  2802  5300  5218    1
  2803  7767  7837    1
  2804  3385  3341    1
  2805  3385  3974    1
  2806  6557  6486    1
  2807  8460  8378    1
  2808  6545  6501    1
  2809  6545  7134    1
  2810  2765  2694    1
  2811  9717  9646    1
  2812  2753  2709    1
  2813  2753  3342    1
  2814  9705  9661    1
  2815  5925  5854    1
  2816  7828  7746    1
  2817  5913  5869    1
  2818  5913  6502    1
  2819  9085  9014    1
  2820  9073  9029    1
  2821  9073  9662    1
  2822  5293  5222    1
  2823  5281  5237    1
  2824  5281  5870    1
  2825  2138  2058    1
  2826  8453  8382    1
  2827  8441  8397    1
  2828  8441  9030    1
  2829  1506  1426    1
  2830  7821  7750    1
  2831  2135  2062    1
  2832  7809  7765    1
  2833  7809  8398    1
  2834  4666  4586    1
  2835   874   794    1
  2836  2149  2062    1
  2837  1503  1430    1
  2838  4034  3954    1
  2839  4663  4590    1
  2840   242   162    1
  2841  1517  1430    1
  2842  7194  7114    1
  2843   871   798    1
  2844  3402  3322    1
  2845  4677  4590    1
  2846  4031  3958    1
  2847   885   798    1
  2848  6562  6482    1
  2849   239   166    1
  2850  7191  7118    1
  2851  2770  2690    1
  2852  4045  3958    1
  2853  9722  9642    1
  2854  3399  3326    1
  2855   253   166    1
  2856  5930  5850    1
  2857  7205  7118    1
  2858  6559  6486    1
  2859  3413  3326    1
  2860  9090  9010    1
  2861  2767  2694    1
  2862  9719  9646    1
  2863  5298  5218    1
  2864  6573  6486    1
  2865  5927  5854    1
  2866  2781  2694    1
  2867  8458  8378    1
  2868  9733  9646    1
  2869  9087  9014    1
  2870  5941  5854    1
  2871  5295  5222    1
  2872  7826  7746    1
  2873  9101  9014    1
  2874  8455  8382    1
  2875  5309  5222    1
  2876  2128  2090    1
  2877  8469  8382    1
  2878  7823  7750    1
  2879  1496  1458    1
  2880  7837  7750    1
  2881  4656  4618    1
  2882   864   826    1
  2883  2131  2087    1
  2884  4024  3986    1
  2885   232   194    1
  2886  1499  1455    1
  2887  7184  7146    1
  2888  3392  3354    1
  2889  4659  4615    1
  2890   867   823    1
  2891  6552  6514    1
  2892  2058  2129    1
  2893  2058  2178    1
  2894  2760  2722    1
  2895  4027  3983    1
  2896  9712  9674    1
  2897   235   191    1
  2898  5920  5882    1
  2899  1426  1497    1
  2900  1426  1546    1
  2901  7187  7143    1
  2902  2062  2125    1
  2903  2062  2175    1
  2904  3395  3351    1
  2905  9080  9042    1
  2906  4586  4657    1
  2907  4586  4706    1
  2908  5288  5250    1
  2909   794   865    1
  2910   794   914    1
  2911  6555  6511    1
  2912  1430  1493    1
  2913  1430  1543    1
  2914  2763  2719    1
  2915  8448  8410    1
  2916  3954  4025    1
  2917  3954  4074    1
  2918  9715  9671    1
  2919  4590  4653    1
  2920  4590  4703    1
  2921   162   233    1
  2922   162   282    1
  2923  5923  5879    1
  2924  7114  7185    1
  2925  7114  7234    1
  2926   798   861    1
  2927   798   911    1
  2928  7816  7778    1
  2929  3322  3393    1
  2930  3322  3442    1
  2931  9083  9039    1
  2932  3958  4021    1
  2933  3958  4071    1
  2934  5291  5247    1
  2935  6482  6553    1
  2936  6482  6602    1
  2937   166   229    1
  2938   166   279    1
  2939  7118  7181    1
  2940  7118  7231    1
  2941  2690  2761    1
  2942  2690  2810    1
  2943  8451  8407    1
  2944  9642  9713    1
  2945  9642  9762    1
  2946  3326  3389    1
  2947  3326  3439    1
  2948  5850  5921    1
  2949  5850  5970    1
  2950  6486  6549    1
  2951  6486  6599    1
  2952  7819  7775    1
  2953  9010  9081    1
  2954  9010  9130    1
  2955  2694  2757    1
  2956  2694  2807    1
  2957  9646  9709    1
  2958  9646  9759    1
  2959  5218  5289    1
  2960  5218  5338    1
  2961  5854  5917    1
  2962  5854  5967    1
  2963  8378  8449    1
  2964  8378  8498    1
  2965  9014  9077    1
  2966  9014  9127    1
  2967  5222  5285    1
  2968  5222  5335    1
  2969  7746  7817    1
  2970  7746  7866    1
  2971  2076  2098    1
  2972  8382  8445    1
  2973  8382  8495    1
  2974  1444  1466    1
  2975  7750  7813    1
  2976  7750  7863    1
  2977  2074  2101    1
  2978  4604  4626    1
  2979   812   834    1
  2980  1442  1469    1
  2981  3972  3994    1
  2982   180   202    1
  2983  4602  4629    1
  2984  7132  7154    1
  2985   810   837    1
  2986  3340  3362    1
  2987  3970  3997    1
  2988  6500  6522    1
  2989   178   205    1
  2990  2708  2730    1
  2991  7130  7157    1
  2992  9660  9682    1
  2993  3338  3365    1
  2994  5868  5890    1
  2995  6498  6525    1
  2996  9028  9050    1
  2997  2706  2733    1
  2998  5236  5258    1
  2999  9658  9685    1
  3000  5866  5893    1
  3001  8396  8418    1
  3002  9026  9053    1
  3003  5234  5261    1
  3004  7764  7786    1
  3005  8394  8421    1
  3006  2090  2129    1
  3007  2090  2094    1
  3008  7762  7789    1
  3009  1458  1497    1
  3010  1458  1462    1
  3011  4618  4657    1
  3012  4618  4622    1
  3013   826   865    1
  3014   826   830    1
  3015  2087  2125    1
  3016  2087  2091    1
  3017  3986  4025    1
  3018  3986  3990    1
  3019   194   233    1
  3020   194   198    1
  3021  7146  7185    1
  3022  7146  7150    1
  3023  1455  1493    1
  3024  1455  1459    1
  3025  3354  3393    1
  3026  3354  3358    1
  3027  4615  4653    1
  3028  4615  4619    1
  3029  6514  6553    1
  3030  6514  6518    1
  3031   823   861    1
  3032   823   827    1
  3033  2722  2761    1
  3034  2722  2726    1
  3035  9674  9713    1
  3036  9674  9678    1
  3037  3983  4021    1
  3038  3983  3987    1
  3039  5882  5921    1
  3040  5882  5886    1
  3041   191   229    1
  3042   191   195    1
  3043  7143  7181    1
  3044  7143  7147    1
  3045  9042  9081    1
  3046  9042  9046    1
  3047  3351  3389    1
  3048  3351  3355    1
  3049  5250  5289    1
  3050  5250  5254    1
  3051  6511  6549    1
  3052  6511  6515    1
  3053  8410  8449    1
  3054  8410  8414    1
  3055  2719  2757    1
  3056  2719  2723    1
  3057  9671  9709    1
  3058  9671  9675    2
  3059  5879  5917    1
  3060  5879  5883    1
  3061  7778  7817    1
  3062  7778  7782    1
  3063  9039  9077    1
  3064  9039  9043    2
  3065  5247  5285    1
  3066  5247  5251    1
  3067  8407  8445    1
  3068  8407  8411    2
  3069  2178  2107    1
  3070  2098  2094    1
  3071  7775  7813    1
  3072  7775  7779    2
  3073  1546  1475    1
  3074  2161  2165    1
  3075  1466  1462   ar
  3076  1466  2100   ar
  3077  4706  4635    1
  3078   914   843    1
  3079  4626  4622    1
  3080  1529  1533    1
  3081  2101  2091   ar
  3082  2101  4624   ar
  3083   834   830   ar
  3084   834  1468   ar
  3085  4074  4003    1
  3086  4689  4693    1
  3087   282   211    1
  3088  3994  3990   ar
  3089  3994  4628   ar
  3090  2175  2107    1
  3091  7234  7163    1
  3092   897   901    1
  3093  1469  1459   ar
  3094  1469  3992   ar
  3095   202   198   ar
  3096   202   836   ar
  3097  3442  3371    1
  3098  7154  7150    1
  3099  4057  4061    1
  3100  4629  4619   ar
  3101  4629  7152   ar
  3102  3362  3358   ar
  3103  3362  3996   ar
  3104  1543  1475    1
  3105  6602  6531    1
  3106   265   269    1
  3107   837   827   ar
  3108   837  3360   ar
  3109  7217  7221    1
  3110  2810  2739    1
  3111  6522  6518   ar
  3112  6522  7156   ar
  3113  4703  4635    1
  3114  9762  9691    1
  3115  3425  3429    1
  3116  3997  3987   ar
  3117  3997  6520   ar
  3118  2730  2726   ar
  3119  2730  3364   ar
  3120   911   843    1
  3121  5970  5899    1
  3122   205   195   ar
  3123   205  2728   ar
  3124  9682  9678    1
  3125  6585  6589    1
  3126  7157  7147   ar
  3127  7157  9680   ar
  3128  5890  5886   ar
  3129  5890  6524   ar
  3130  4071  4003    1
  3131  9130  9059    1
  3132  2793  2797    1
  3133  3365  3355   ar
  3134  3365  5888   ar
  3135  9745  9749    1
  3136   279   211    1
  3137  5338  5267    1
  3138  9050  9046   ar
  3139  9050  9684   ar
  3140  7231  7163    1
  3141  5953  5957    1
  3142  6525  6515   ar
  3143  6525  9048   ar
  3144  5258  5254   ar
  3145  5258  5892   ar
  3146  3439  3371    1
  3147  8498  8427    1
  3148  2733  2723   ar
  3149  2733  5256   ar
  3150  9113  9117    1
  3151  9685  9675    1
  3152  8418  8414   ar
  3153  8418  9052   ar
  3154  6599  6531    1
  3155  5321  5325    1
  3156  5893  5883   ar
  3157  5893  8416   ar
  3158  2807  2739    1
  3159  7866  7795    1
  3160  9759  9691    1
  3161  8481  8485    1
  3162  9053  9043    1
  3163  7786  7782   ar
  3164  7786  8420   ar
  3165  5967  5899    1
  3166  2094  2099    2
  3167  5261  5251   ar
  3168  5261  7784   ar
  3169  2107  2163    1
  3170  9127  9059    1
  3171  7849  7853    1
  3172  8421  8411    1
  3173  2155  2169    1
  3174  2165  2169    1
  3175  2165  2171    2
  3176  5335  5267    1
  3177  2075  2096    1
  3178  1462  1467   ar
  3179  1475  1531    1
  3180  8495  8427    1
  3181  4622  4627    2
  3182  7789  7779    1
  3183  1523  1537    1
  3184  4635  4691    1
  3185  1533  1537   ar
  3186  1533  1539   ar
  3187  1443  1464    1
  3188   830   835   ar
  3189   843   899    1
  3190  4683  4697    1
  3191  4690  2171    1
  3192  2091  2095   ar
  3193  4693  4697    1
  3194  4693  4699    2
  3195  7863  7795    1
  3196  4603  4624    1
  3197  3990  3995   ar
  3198   891   905    1
  3199  4003  4059    1
  3200   901   905   ar
  3201   901   907   ar
  3202   811   832    1
  3203   198   203   ar
  3204   211   267    1
  3205  7150  7155    2
  3206  4051  4065    1
  3207  4058  1539    1
  3208  1459  1463   ar
  3209  7163  7219    1
  3210  4061  4065   ar
  3211  4061  4067   ar
  3212  3971  3992    1
  3213  3358  3363   ar
  3214   259   273    1
  3215  3371  3427    1
  3216   269   273   ar
  3217   269   275   ar
  3218  7211  7225    1
  3219  7218  4699    1
  3220  4619  4623   ar
  3221  7221  7225    1
  3222  7221  7227    2
  3223   179   200    1
  3224  7131  7152    1
  3225  6518  6523   ar
  3226  3419  3433    1
  3227  3426   907    1
  3228   827   831   ar
  3229  6531  6587    1
  3230  3429  3433   ar
  3231  3429  3435   ar
  3232  3339  3360    1
  3233  2071  2100    1
  3234  2726  2731   ar
  3235  2739  2795    1
  3236  9678  9683    2
  3237  6579  6593    1
  3238  6586  4067    1
  3239  3987  3991   ar
  3240  9691  9747    1
  3241  6589  6593   ar
  3242  6589  6595   ar
  3243  6499  6520    1
  3244  5886  5891   ar
  3245  2787  2801    1
  3246  2794   275    1
  3247   195   199   ar
  3248  5899  5955    1
  3249  2797  2801   ar
  3250  2797  2803   ar
  3251  9739  9753    1
  3252  9746  7227    1
  3253  7147  7151   ar
  3254  9749  9753    2
  3255  9749  9755    1
  3256  2707  2728    1
  3257  1439  1468    1
  3258  9659  9680    1
  3259  9046  9051   ar
  3260  5947  5961    1
  3261  5954  3435    1
  3262  3355  3359   ar
  3263  9059  9115    1
  3264  5957  5961   ar
  3265  5957  5963   ar
  3266  5867  5888    1
  3267  4599  4628    1
  3268  5254  5259   ar
  3269  1537  4700   ar
  3270  5267  5323    1
  3271  9107  9121    1
  3272  9114  6595    1
  3273  6515  6519   ar
  3274  9117  9121    2
  3275  9117  9123    1
  3276   807   836    1
  3277  9027  9048    1
  3278  8414  8419   ar
  3279  5315  5329    1
  3280  5322  2803    1
  3281  2723  2727   ar
  3282  8427  8483    1
  3283  5325  5329   ar
  3284  5325  5331   ar
  3285  9675  9679    1
  3286  5235  5256    1
  3287  3967  3996    1
  3288  1539  4698   ar
  3289   905  4068   ar
  3290  8475  8489    1
  3291  8482  5963    1
  3292  5883  5887   ar
  3293  2096  2092    1
  3294  8485  8489    2
  3295  8485  8491    1
  3296   175   204    1
  3297  8395  8416    1
  3298  7127  7156    1
  3299  7782  7787   ar
  3300  4065  7228   ar
  3301  7795  7851    1
  3302  9043  9047    1
  3303  3335  3364    1
  3304   907  4066   ar
  3305   273  3436   ar
  3306  7843  7857    1
  3307  7850  5331    1
  3308  5251  5255   ar
  3309  1464  1460    1
  3310  7853  7857    2
  3311  7853  7859    1
  3312  7763  7784    1
  3313  6495  6524    1
  3314  4067  7226   ar
  3315  3433  6596   ar
  3316  8411  8415    1
  3317  4624  4620   ar
  3318  2703  2732    1
  3319   275  3434   ar
  3320  9655  9684    1
  3321  6593  9756   ar
  3322   832   828    1
  3323  5863  5892    1
  3324  3435  6594   ar
  3325  2801  5964   ar
  3326  2100  2093   ar
  3327  7779  7783    1
  3328  3992  3988   ar
  3329  9023  9052    1
  3330  6595  9754   ar
  3331  5961  9124   ar
  3332   200   196    1
  3333  7152  7148   ar
  3334  2160  2167    1
  3335  5231  5260    1
  3336  2803  5962   ar
  3337  1468  1461   ar
  3338  3360  3356   ar
  3339  8391  8420    1
  3340  5963  9122   ar
  3341  5329  8492   ar
  3342  4628  4621   ar
  3343  6520  6516   ar
  3344  1528  1535    1
  3345   836   829   ar
  3346  2728  2724   ar
  3347  9680  9676   ar
  3348  4688  4695    1
  3349  7759  7788    1
  3350  5331  8490   ar
  3351  3996  3989   ar
  3352  5888  5884   ar
  3353   896   903    1
  3354   204   197    1
  3355  7156  7149   ar
  3356  9048  9044   ar
  3357  4056  4063    1
  3358  3364  3357   ar
  3359  5256  5252   ar
  3360   264   271    1
  3361  7216  7223    1
  3362  6524  6517   ar
  3363  8416  8412   ar
  3364  3424  3431    1
  3365  2732  2725    1
  3366  9684  9677   ar
  3367  6584  6591    1
  3368  2172  2158    1
  3369  2172  2166    1
  3370  5892  5885   ar
  3371  7784  7780   ar
  3372  2792  2799    1
  3373  9744  9751    1
  3374  9052  9045   ar
  3375  5952  5959    1
  3376  1540  1526    1
  3377  1540  1534    1
  3378  2170  2154    1
  3379  2170  2166    1
  3380  2163  2167   ar
  3381  2163  2173   ar
  3382  5260  5253    1
  3383  9112  9119    1
  3384  4700  4686    1
  3385  4700  4694   ar
  3386  8420  8413   ar
  3387  5320  5327    1
  3388   908   894    1
  3389   908   902    1
  3390  1538  1522    1
  3391  1538  1534    1
  3392  1531  1535   ar
  3393  1531  1541   ar
  3394  8480  8487    1
  3395  4068  4054    1
  3396  4068  4062   ar
  3397  4698  4682    1
  3398  4698  4694   ar
  3399  4691  4695   ar
  3400  4691  4701   ar
  3401  7788  7781    1
  3402   276   262    1
  3403   276   270    1
  3404   906   890    1
  3405   906   902    1
  3406   899   903   ar
  3407   899   909   ar
  3408  7228  7214    1
  3409  7228  7222   ar
  3410  7848  7855    1
  3411  3436  3422    1
  3412  3436  3430   ar
  3413  4066  4050    1
  3414  4066  4062   ar
  3415  4059  4063   ar
  3416  4059  4069   ar
  3417   274   258    1
  3418   274   270    1
  3419   267   271   ar
  3420   267   277   ar
  3421  6596  6582    1
  3422  6596  6590   ar
  3423  7226  7210    1
  3424  7226  7222   ar
  3425  7219  7223   ar
  3426  7219  7229   ar
  3427  2167  2174   ar
  3428  2804  2790    1
  3429  2804  2798    1
  3430  3434  3418    1
  3431  3434  3430   ar
  3432  3427  3431   ar
  3433  3427  3437   ar
  3434  9756  9742    1
  3435  9756  9750   ar
  3436  5964  5950    1
  3437  5964  5958   ar
  3438  6594  6578    1
  3439  6594  6590   ar
  3440  6587  6591   ar
  3441  6587  6597   ar
  3442  1535  1542   ar
  3443  2802  2786    1
  3444  2802  2798    1
  3445  2795  2799   ar
  3446  2795  2805   ar
  3447  9124  9110    1
  3448  9124  9118   ar
  3449  9754  9738    1
  3450  9754  9750   ar
  3451  9747  9751   ar
  3452  9747  9757   ar
  3453  4695  4702   ar
  3454  2166  2108    2
  3455  5332  5318    1
  3456  5332  5326    1
  3457  5962  5946    1
  3458  5962  5958   ar
  3459  5955  5959   ar
  3460  5955  5965   ar
  3461   903   910   ar
  3462  8492  8478    1
  3463  8492  8486   ar
  3464  9122  9106    1
  3465  9122  9118   ar
  3466  9115  9119   ar
  3467  9115  9125   ar
  3468  4063  4070   ar
  3469  1534  1476    2
  3470  5330  5314    1
  3471  5330  5326    1
  3472  5323  5327   ar
  3473  5323  5333   ar
  3474   271   278   ar
  3475  7223  7230   ar
  3476  4694  4636    1
  3477  7860  7846    1
  3478  7860  7854    1
  3479  8490  8474    1
  3480  8490  8486   ar
  3481  8483  8487   ar
  3482  8483  8493   ar
  3483  3431  3438   ar
  3484   902   844    2
  3485  6591  6598   ar
  3486  4062  4004    1
  3487  7858  7842    1
  3488  7858  7854    1
  3489  7851  7855   ar
  3490  7851  7861   ar
  3491  2799  2806   ar
  3492   270   212    2
  3493  9751  9758   ar
  3494  2099  2072    1
  3495  7222  7164    1
  3496  5959  5966   ar
  3497  2156  2173    1
  3498  3430  3372    1
  3499  9119  9126   ar
  3500  1467  1440    1
  3501  1467  2097   ar
  3502  6590  6532    1
  3503  5327  5334   ar
  3504  1524  1541    1
  3505  2798  2740    2
  3506  2084  2123    1
  3507  4627  4600    1
  3508  9750  9692    1
  3509  8487  8494   ar
  3510   835   808    1
  3511   835  1465   ar
  3512  4684  4701    1
  3513  5958  5900    1
  3514   892   909    1
  3515  1452  1491    1
  3516  3995  3968    1
  3517  3995  4625   ar
  3518  9118  9060    1
  3519  7855  7862   ar
  3520  2173  2168   ar
  3521   203   176    1
  3522   203   833   ar
  3523  4052  4069    1
  3524  5326  5268    2
  3525  4612  4651    1
  3526  7155  7128    1
  3527  2095  2123    1
  3528  2095  4630   ar
  3529   260   277    1
  3530   820   859    1
  3531  3363  3336    1
  3532  3363  3993   ar
  3533  7212  7229    1
  3534  8486  8428    1
  3535  1541  1536   ar
  3536  3420  3437    1
  3537  3980  4019    1
  3538  6523  6496    1
  3539  6523  7153   ar
  3540  1463  1491    1
  3541  1463  3998   ar
  3542   188   227    1
  3543  4701  4696   ar
  3544  2731  2704    1
  3545  2731  3361   ar
  3546  6580  6597    1
  3547  7854  7796    2
  3548  7140  7179    1
  3549  9683  9656    1
  3550  4623  4651    1
  3551  4623  7158   ar
  3552   909   904   ar
  3553  2788  2805    1
  3554  3348  3387    1
  3555  5891  5864    1
  3556  5891  6521   ar
  3557   831   859    1
  3558   831  3366   ar
  3559  9740  9757    1
  3560  4069  4064   ar
  3561  5948  5965    1
  3562  6508  6547    1
  3563  9051  9024    1
  3564  9051  9681   ar
  3565  3991  4019    1
  3566  3991  6526   ar
  3567   277   272   ar
  3568  2716  2755    1
  3569  7229  7224   ar
  3570  5259  5232    1
  3571  5259  5889   ar
  3572   199   227    1
  3573   199  2734   ar
  3574  9108  9125    1
  3575  9668  9707    1
  3576  7151  7179    1
  3577  7151  9686   ar
  3578  3437  3432   ar
  3579  5316  5333    1
  3580  5876  5915    1
  3581  8419  8392    1
  3582  8419  9049   ar
  3583  3359  3387    1
  3584  3359  5894   ar
  3585  6597  6592   ar
  3586  8476  8493    1
  3587  9036  9075    1
  3588  6519  6547    1
  3589  6519  9054   ar
  3590  2805  2800   ar
  3591  5244  5283    1
  3592  9757  9752   ar
  3593  7787  7760    1
  3594  7787  8417   ar
  3595  2727  2755    1
  3596  2727  5262   ar
  3597  9679  9707    1
  3598  2092  2102    2
  3599  2092  2088    1
  3600  5965  5960   ar
  3601  7844  7861    1
  3602  8404  8443    1
  3603  5887  5915    1
  3604  5887  8422   ar
  3605  9125  9120   ar
  3606  2174  2157    1
  3607  2174  2164   ar
  3608  9047  9075    1
  3609  1460  1470    2
  3610  1460  1456    1
  3611  5333  5328   ar
  3612  7772  7811    1
  3613  5255  5283    1
  3614  5255  7790   ar
  3615  4620  4630   ar
  3616  4620  4616    1
  3617  8493  8488   ar
  3618  1542  1525    1
  3619  1542  1532   ar
  3620  8415  8443    1
  3621   828   838    2
  3622   828   824    1
  3623  2108  2176    1
  3624  2108  2177    1
  3625  2093  2097   ar
  3626  2093  2089    1
  3627  4702  4685    1
  3628  4702  4692   ar
  3629  3988  3998   ar
  3630  3988  3984    1
  3631  7861  7856   ar
  3632   910   893    1
  3633   910   900   ar
  3634  7783  7811    1
  3635   196   206    2
  3636   196   192    1
  3637  1476  1544    1
  3638  1476  1545    1
  3639  7148  7158   ar
  3640  7148  7144    1
  3641  1461  1465   ar
  3642  1461  1457    1
  3643  4070  4053    1
  3644  4070  4060   ar
  3645  3356  3366   ar
  3646  3356  3352    1
  3647  4636  4704    1
  3648  4636  4705    1
  3649   278   261    1
  3650   278   268   ar
  3651  4621  4625   ar
  3652  4621  4617    1
  3653  7230  7213    1
  3654  7230  7220   ar
  3655   844   912    1
  3656   844   913    1
  3657  6516  6526   ar
  3658  6516  6512    1
  3659   829   833   ar
  3660   829   825    1
  3661  3438  3421    1
  3662  3438  3428   ar
  3663  2123  2083    1
  3664  2724  2734   ar
  3665  2724  2720    1
  3666  4004  4072    1
  3667  4004  4073    1
  3668  9676  9686   ar
  3669  9676  9672    1
  3670  3989  3993   ar
  3671  3989  3985    1
  3672  6598  6581    1
  3673  6598  6588   ar
  3674   212   280    1
  3675   212   281    1
  3676  5884  5894   ar
  3677  5884  5880    1
  3678  7164  7232    1
  3679  7164  7233    1
  3680   197   201    2
  3681   197   193    1
  3682  2806  2789    1
  3683  2806  2796   ar
  3684  7149  7153   ar
  3685  7149  7145    1
  3686  1491  1451    1
  3687  9758  9741    1
  3688  9758  9748   ar
  3689  3372  3440    1
  3690  3372  3441    1
  3691  9044  9054   ar
  3692  9044  9040    1
  3693  3357  3361   ar
  3694  3357  3353    1
  3695  5966  5949    1
  3696  5966  5956   ar
  3697  4651  4611    1
  3698  5252  5262   ar
  3699  5252  5248    1
  3700  6532  6600    1
  3701  6532  6601    1
  3702  6517  6521   ar
  3703  6517  6513    1
  3704   859   819    1
  3705  9126  9109    1
  3706  9126  9116   ar
  3707  2740  2808    1
  3708  2740  2809    1
  3709  8412  8422   ar
  3710  8412  8408    1
  3711  9692  9760    1
  3712  9692  9761    1
  3713  2725  2729    2
  3714  2725  2721    1
  3715  5334  5317    1
  3716  5334  5324   ar
  3717  9677  9681   ar
  3718  9677  9673    1
  3719  4019  3979    1
  3720  5900  5968    1
  3721  5900  5969    1
  3722  5885  5889   ar
  3723  5885  5881    1
  3724  2176  2061    1
  3725   227   187    1
  3726  8494  8477    1
  3727  8494  8484   ar
  3728  7179  7139    1
  3729  7780  7790   ar
  3730  7780  7776    1
  3731  9060  9128    1
  3732  9060  9129    1
  3733  9045  9049   ar
  3734  9045  9041    1
  3735  3387  3347    1
  3736  5268  5336    1
  3737  5268  5337    1
  3738  5253  5257    2
  3739  5253  5249    1
  3740  1544  1429    1
  3741  7862  7845    1
  3742  7862  7852   ar
  3743  6547  6507    1
  3744  2177  2057    1
  3745  8428  8496    1
  3746  8428  8497    1
  3747  2102  2073    1
  3748  2168  2164   ar
  3749  2168  2153    1
  3750  8413  8417   ar
  3751  8413  8409    1
  3752  4704  4589    1
  3753  2755  2715    1
  3754  9707  9667    1
  3755   912   797    1
  3756  5915  5875    1
  3757  1545  1425    1
  3758  7796  7864    1
  3759  7796  7865    1
  3760  1470  1441    1
  3761  1536  1532   ar
  3762  1536  1521    1
  3763  7781  7785    2
  3764  7781  7777    1
  3765  4072  3957    1
  3766  2126  2088    1
  3767  2126  2061    1
  3768  9075  9035    1
  3769  4705  4585    1
  3770  2097  2124    1
  3771  4630  4601    1
  3772  4696  4692   ar
  3773  4696  4681    1
  3774   280   165    1
  3775  7232  7117    1
  3776  5283  5243    1
  3777   913   793    1
  3778   838   809    1
  3779   904   900   ar
  3780   904   889    1
  3781  3440  3325    1
  3782  1494  1456    1
  3783  1494  1429    1
  3784  8443  8403    1
  3785  4073  3953    1
  3786  1465  1492    1
  3787  3998  3969    1
  3788  4064  4060   ar
  3789  4064  4049    1
  3790  2164  2159    1
  3791  6600  6485    1
  3792   281   161    1
  3793   206   177    1
  3794  4654  4616    1
  3795  4654  4589    1
  3796   272   268   ar
  3797   272   257    1
  3798  2130  2089    1
  3799  2130  2057    1
  3800  7233  7113    1
  3801  4625  4652    1
  3802  7158  7129    1
  3803  7224  7220   ar
  3804  7224  7209    1
  3805  2808  2693    1
  3806   862   824    1
  3807   862   797    1
  3808  9760  9645    1
  3809  7811  7771    1
  3810  3441  3321    1
  3811   833   860    1
  3812  3366  3337    1
  3813  3432  3428   ar
  3814  3432  3417    1
  3815  1532  1527    1
  3816  5968  5853    1
  3817  4022  3984    1
  3818  4022  3957    1
  3819  1498  1457    1
  3820  1498  1425    1
  3821  6601  6481    1
  3822  3993  4020    1
  3823  6526  6497    1
  3824  6592  6588   ar
  3825  6592  6577    1
  3826  4692  4687    1
  3827   230   192    1
  3828   230   165    1
  3829  9128  9013    1
  3830  2809  2689    1
  3831   201   228    1
  3832  2734  2705    1
  3833  7182  7144    1
  3834  7182  7117    1
  3835  2800  2796   ar
  3836  2800  2785    1
  3837  4658  4617    1
  3838  4658  4585    1
  3839  9761  9641    1
  3840   900   895    1
  3841  7153  7180    1
  3842  9686  9657    1
  3843  9752  9748   ar
  3844  9752  9737    1
  3845  5336  5221    1
  3846  3390  3352    1
  3847  3390  3325    1
  3848   866   825    1
  3849   866   793    1
  3850  5969  5849    1
  3851  3361  3388    1
  3852  5894  5865    1
  3853  5960  5956   ar
  3854  5960  5945    1
  3855  4060  4055    1
  3856  8496  8381    1
  3857  6550  6512    1
  3858  6550  6485    1
  3859  4026  3985    1
  3860  4026  3953    1
  3861  9129  9009    1
  3862   268   263    1
  3863  6521  6548    1
  3864  9054  9025    1
  3865  9120  9116   ar
  3866  9120  9105    1
  3867  7220  7215    1
  3868  2758  2720    1
  3869  2758  2693    1
  3870   234   193    1
  3871   234   161    1
  3872  5337  5217    1
  3873  2729  2756    1
  3874  5262  5233    1
  3875  9710  9672    1
  3876  9710  9645    1
  3877  5328  5324   ar
  3878  5328  5313    1
  3879  7186  7145    1
  3880  7186  7113    1
  3881  3428  3423    1
  3882  9681  9708    1
  3883  7864  7749    1
  3884  5918  5880    1
  3885  5918  5853    1
  3886  3394  3353    1
  3887  3394  3321    1
  3888  8497  8377    1
  3889  5889  5916    1
  3890  8422  8393    1
  3891  8488  8484   ar
  3892  8488  8473    1
  3893  6588  6583    1
  3894  9078  9040    1
  3895  9078  9013    1
  3896  6554  6513    1
  3897  6554  6481    1
  3898  2796  2791    1
  3899  9049  9076    1
  3900  9748  9743    1
  3901  5286  5248    1
  3902  5286  5221    1
  3903  2762  2721    1
  3904  2762  2689    1
  3905  7865  7745    1
  3906  5257  5284    1
  3907  7790  7761    1
  3908  7856  7852   ar
  3909  7856  7841    1
  3910  9714  9673    1
  3911  9714  9641    1
  3912  5956  5951    1
  3913  8446  8408    1
  3914  8446  8381    1
  3915  5922  5881    1
  3916  5922  5849    1
  3917  8417  8444    1
  3918  9116  9111    1
  3919  2088  2132    1
  3920  9082  9041    1
  3921  9082  9009    1
  3922  5324  5319    1
  3923  7814  7776    1
  3924  7814  7749    1
  3925  5290  5249    1
  3926  5290  5217    1
  3927  7785  7812    1
  3928  8484  8479    1
  3929  1456  1500    1
  3930  8450  8409    1
  3931  8450  8377    1
  3932  4616  4660    1
  3933  2089  2127    1
  3934  7852  7847    1
  3935   824   868    1
  3936  7818  7777    1
  3937  7818  7745    1
  3938  3984  4028    1
  3939  1457  1495    1
  3940   192   236    1
  3941  7144  7188    1
  3942  4617  4655    1
  3943  3352  3396    1
  3944   825   863    1
  3945  6512  6556    1
  3946  3985  4023    1
  3947  2720  2764    1
  3948  9672  9716    1
  3949   193   231    1
  3950  7145  7183    1
  3951  5880  5924    1
  3952  3353  3391    1
  3953  9040  9084    1
  3954  6513  6551    1
  3955  5248  5292    1
  3956  2721  2759    1
  3957  9673  9711    1
  3958  8408  8452    1
  3959  5881  5919    1
  3960  9041  9079    1
  3961  7776  7820    1
  3962  5249  5287    1
  3963  8409  8447    1
  3964  7777  7815    1
  3965  2124  2085    1
  3966  2124  2086    1
  3967  2061  2150    1
  3968  2061  2134    1
  3969  2061  2136    1
  3970  1492  1453    1
  3971  1492  1454    1
  3972  1429  1518    1
  3973  1429  1502    1
  3974  1429  1504    1
  3975  4652  4613    1
  3976  4652  4614    1
  3977  2057  2139    1
  3978  2057  2137    1
  3979   860   821    1
  3980   860   822    1
  3981  4589  4678    1
  3982  4589  4662    1
  3983  4589  4664    1
  3984   797   886    1
  3985   797   870    1
  3986   797   872    1
  3987  4020  3981    1
  3988  4020  3982    1
  3989  1425  1507    1
  3990  1425  1505    1
  3991   228   189    1
  3992   228   190    1
  3993  3957  4046    1
  3994  3957  4030    1
  3995  3957  4032    1
  3996  7180  7141    1
  3997  7180  7142    1
  3998  4585  4667    1
  3999  4585  4665    1
  4000   165   254    1
  4001   165   238    1
  4002   165   240    1
  4003  3388  3349    1
  4004  3388  3350    1
  4005  7117  7206    1
  4006  7117  7190    1
  4007  7117  7192    1
  4008   793   875    1
  4009   793   873    1
  4010  3325  3414    1
  4011  3325  3398    1
  4012  3325  3400    1
  4013  6548  6509    1
  4014  6548  6510    1
  4015  3953  4035    1
  4016  3953  4033    1
  4017  2756  2717    1
  4018  2756  2718    1
  4019  6485  6574    1
  4020  6485  6558    1
  4021  6485  6560    1
  4022  9708  9669    1
  4023  9708  9670    1
  4024   161   243    1
  4025   161   241    1
  4026  2132  2055    1
  4027  7113  7195    1
  4028  7113  7193    1
  4029  2693  2782    1
  4030  2693  2766    1
  4031  2693  2768    1
  4032  5916  5877    1
  4033  5916  5878    1
  4034  9645  9734    1
  4035  9645  9718    1
  4036  9645  9720    1
  4037  3321  3403    1
  4038  3321  3401    1
  4039  5853  5942    1
  4040  5853  5926    1
  4041  5853  5928    1
  4042  9076  9037    1
  4043  9076  9038    1
  4044  1500  1423    1
  4045  6481  6563    1
  4046  6481  6561    1
  4047  5284  5245    1
  4048  5284  5246    1
  4049  9013  9102    1
  4050  9013  9086    1
  4051  9013  9088    1
  4052  2689  2771    1
  4053  2689  2769    1
  4054  4660  4583    1
  4055  9641  9723    1
  4056  9641  9721    1
  4057  5221  5310    1
  4058  5221  5294    1
  4059  5221  5296    1
  4060  8444  8405    1
  4061  8444  8406    1
  4062   868   791    1
  4063  5849  5931    1
  4064  5849  5929    1
  4065  2127  2060    1
  4066  8381  8470    1
  4067  8381  8454    1
  4068  8381  8456    1
  4069  4028  3951    1
  4070  9009  9091    1
  4071  9009  9089    1
  4072  7812  7773    1
  4073  7812  7774    1
  4074   236   159    1
  4075  2081  2122    1
  4076  5217  5299    1
  4077  5217  5297    1
  4078  7188  7111    1
  4079  1495  1428    1
  4080  7749  7838    1
  4081  7749  7822    1
  4082  7749  7824    1
  4083  3396  3319    1
  4084  8377  8459    1
  4085  8377  8457    1
  4086  4655  4588    1
  4087  1449  1490    1
  4088  6556  6479    1
  4089   863   796    1
  4090  2764  2687    1
  4091  4609  4650    1
  4092  7745  7827    1
  4093  7745  7825    1
  4094  9716  9639    1
  4095  4023  3956    1
  4096   817   858    1
  4097  5924  5847    1
  4098   231   164    1
  4099  7183  7116    1
  4100  3977  4018    1
  4101  9084  9007    1
  4102  3391  3324    1
  4103   185   226    1
  4104  5292  5215    1
  4105  7137  7178    1
  4106  6551  6484    1
  4107  3345  3386    1
  4108  8452  8375    1
  4109  2759  2692    1
  4110  9711  9644    1
  4111  6505  6546    1
  4112  5919  5852    1
  4113  2150  2080    1
  4114  2713  2754    1
  4115  7820  7743    1
  4116  9665  9706    1
  4117  9079  9012    1
  4118  5873  5914    1
  4119  5287  5220    1
  4120  1518  1448    1
  4121  9033  9074    1
  4122  2134  2055    1
  4123  8447  8380    1
  4124  4678  4608    1
  4125  5241  5282    1
  4126   886   816    1
  4127  8401  8442    1
  4128  1502  1423    1
  4129  7815  7748    1
  4130  4046  3976    1
  4131   254   184    1
  4132  4662  4583    1
  4133  7206  7136    1
  4134  7769  7810    1
  4135   870   791    1
  4136  3414  3344    1
  4137  2139  2060    1
  4138  4030  3951    1
  4139  6574  6504    1
  4140   238   159    1
  4141  2782  2712    1
  4142  7190  7111    1
  4143  1507  1428    1
  4144  9734  9664    1
  4145  3398  3319    1
  4146  5942  5872    1
  4147  4667  4588    1
  4148  2032  2026    1
  4149  6558  6479    1
  4150   875   796    1
  4151  9102  9032    1
  4152  2766  2687    1
  4153  5310  5240    1
  4154  9718  9639    1
  4155  4035  3956    1
  4156  1400  1394    1
  4157  2034  2026    1
  4158  5926  5847    1
  4159   243   164    1
  4160  8470  8400    1
  4161  7195  7116    1
  4162  4560  4554    1
  4163  9086  9007    1
  4164  3403  3324    1
  4165   768   762    1
  4166  1402  1394    1
  4167  5294  5215    1
  4168  7838  7768    1
  4169  6563  6484    1
  4170  3928  3922    1
  4171  4562  4554    1
  4172  8454  8375    1
  4173  2771  2692    1
  4174   136   130    1
  4175  9723  9644    1
  4176  7088  7082    1
  4177   770   762    1
  4178  5931  5852    1
  4179  2082  2122    1
  4180  3296  3290    1
  4181  2045  2054    2
  4182  3930  3922    1
  4183  7822  7743    1
  4184  9091  9012    1
  4185  2122  2117    1
  4186  6456  6450    1
  4187   138   130    1
  4188  7090  7082    1
  4189  5299  5220    1
  4190  1450  1490    1
  4191  2664  2658    1
  4192  1413  1422    2
  4193  9616  9610    1
  4194  3298  3290    1
  4195  2136  2055    1
  4196  2051  2042    1
  4197  8459  8380    1
  4198  4610  4650    1
  4199  1490  1485    1
  4200  5824  5818    1
  4201  4573  4582    2
  4202  6458  6450    1
  4203   818   858    1
  4204   781   790    2
  4205  4650  4645    1
  4206  8984  8978    1
  4207  2666  2658    1
  4208  1504  1423    1
  4209  1419  1410    1
  4210  9618  9610    1
  4211  7827  7748    1
  4212  3978  4018    1
  4213   858   853    1
  4214  5192  5186    1
  4215  3941  3950    2
  4216  5826  5818    1
  4217  4664  4583    1
  4218   186   226    1
  4219  4579  4570    1
  4220  2137  2060    1
  4221  7138  7178    1
  4222   149   158    2
  4223  4018  4013    1
  4224  8352  8346    1
  4225   872   791    1
  4226  7101  7110    2
  4227   787   778    1
  4228  8986  8978    1
  4229  3346  3386    1
  4230   226   221    1
  4231  3309  3318    2
  4232  7178  7173    1
  4233  5194  5186    1
  4234  4032  3951    1
  4235  3947  3938    1
  4236  1505  1428    1
  4237  6506  6546    1
  4238  3386  3381    1
  4239  7720  7714    1
  4240   240   159    1
  4241  6469  6478    2
  4242   155   146    1
  4243  8354  8346    1
  4244  7192  7111    1
  4245  2714  2754    1
  4246  7107  7098    1
  4247  4665  4588    1
  4248  9666  9706    1
  4249  2677  2686    2
  4250  6546  6541    1
  4251  3400  3319    1
  4252  9629  9638    2
  4253  3315  3306    1
  4254   873   796    1
  4255  5874  5914    1
  4256  2754  2749    1
  4257  5837  5846    2
  4258  9706  9701    1
  4259  7722  7714    1
  4260  6560  6479    1
  4261  6475  6466    1
  4262  4033  3956    1
  4263  9034  9074    1
  4264  5914  5909    1
  4265  2768  2687    1
  4266  8997  9006    2
  4267  2683  2674    1
  4268   241   164    1
  4269  9720  9639    1
  4270  2065  2116    1
  4271  5242  5282    1
  4272  9635  9626    1
  4273  7193  7116    1
  4274  5205  5214    2
  4275  9074  9069    1
  4276  5928  5847    1
  4277  5843  5834    1
  4278  3401  3324    1
  4279  8402  8442    1
  4280  5282  5277    1
  4281  8365  8374    2
  4282  9088  9007    1
  4283  1433  1484    1
  4284  9003  8994    1
  4285  6561  6484    1
  4286  2029  2023    1
  4287  8442  8437    1
  4288  5296  5215    1
  4289  5211  5202    1
  4290  2769  2692    1
  4291  4593  4644    1
  4292  7770  7810    1
  4293  9721  9644    1
  4294  2026  2037    1
  4295  2026  2021    1
  4296  7733  7742    2
  4297  8456  8375    1
  4298   801   852    1
  4299  8371  8362    1
  4300  5929  5852    1
  4301  1397  1391    1
  4302  7810  7805    1
  4303  2067  2119    1
  4304  3961  4012    1
  4305  9089  9012    1
  4306  1394  1405    1
  4307  1394  1389    1
  4308  4557  4551    1
  4309  2063  2114    1
  4310  7824  7743    1
  4311   169   220    1
  4312  7739  7730    1
  4313  5297  5220    1
  4314   765   759    1
  4315  7121  7172    1
  4316  4554  4565    1
  4317  4554  4549    1
  4318  1435  1487    1
  4319  3329  3380    1
  4320  8457  8380    1
  4321   762   773    1
  4322   762   757    1
  4323  3925  3919    1
  4324  4595  4647    1
  4325  1431  1482    1
  4326   133   127    1
  4327  6489  6540    1
  4328  3922  3933    1
  4329  3922  3917    1
  4330  7085  7079    1
  4331   803   855    1
  4332  4591  4642    1
  4333  2697  2748    1
  4334  7825  7748    1
  4335   130   141    1
  4336   130   125    1
  4337  3293  3287    1
  4338  9649  9700    1
  4339  7082  7093    1
  4340  7082  7077    1
  4341  3963  4015    1
  4342   799   850    1
  4343  5857  5908    1
  4344  3290  3301    1
  4345  3290  3285    1
  4346  6453  6447    1
  4347   171   223    1
  4348  7123  7175    1
  4349  3959  4010    1
  4350  2661  2655    1
  4351  9017  9068    1
  4352  6450  6461    1
  4353  6450  6445    1
  4354  9613  9607    1
  4355  3331  3383    1
  4356   167   218    1
  4357  7119  7170    1
  4358  5225  5276    1
  4359  2658  2669    1
  4360  2658  2653    1
  4361  5821  5815    1
  4362  9610  9621    1
  4363  9610  9605    1
  4364  6491  6543    1
  4365  3327  3378    1
  4366  8385  8436    1
  4367  2055  2146    1
  4368  2055  2148    1
  4369  5818  5829    1
  4370  5818  5813    1
  4371  8981  8975    1
  4372  2699  2751    1
  4373  9651  9703    1
  4374  6487  6538    1
  4375  5189  5183    1
  4376  8978  8989    1
  4377  8978  8973    1
  4378  5859  5911    1
  4379  2695  2746    1
  4380  9647  9698    1
  4381  7753  7804    1
  4382  1423  1514    1
  4383  1423  1516    1
  4384  5186  5197    1
  4385  5186  5181    1
  4386  8349  8343    1
  4387  9019  9071    1
  4388  5855  5906    1
  4389  4583  4674    1
  4390  4583  4676    1
  4391  8346  8357    1
  4392  8346  8341    1
  4393  5227  5279    1
  4394  9015  9066    1
  4395   791   882    1
  4396   791   884    1
  4397  7717  7711    1
  4398  8387  8439    1
  4399  5223  5274    1
  4400  2060  2143    1
  4401  2060  2141    1
  4402  2060  2309    1
  4403  3951  4042    1
  4404  3951  4044    1
  4405  7714  7725    1
  4406  7714  7709    1
  4407  8383  8434    1
  4408   159   250    1
  4409   159   252    1
  4410  7111  7202    1
  4411  7111  7204    1
  4412  7755  7807    1
  4413  1428  1511    1
  4414  1428  1509    1
  4415  1428  1677    1
  4416  3319  3410    1
  4417  3319  3412    1
  4418  7751  7802    1
  4419  4588  4671    1
  4420  4588  4669    1
  4421  4588  4837    1
  4422  6479  6570    1
  4423  6479  6572    1
  4424   796   879    1
  4425   796   877    1
  4426   796  1045    1
  4427  2687  2778    1
  4428  2687  2780    1
  4429  9639  9730    1
  4430  9639  9732    1
  4431  3956  4039    1
  4432  3956  4037    1
  4433  3956  4205    1
  4434  5847  5938    1
  4435  5847  5940    1
  4436   164   247    1
  4437   164   245    1
  4438   164   413    1
  4439  7116  7199    1
  4440  7116  7197    1
  4441  7116  7365    1
  4442  9007  9098    1
  4443  9007  9100    1
  4444  3324  3407    1
  4445  3324  3405    1
  4446  3324  3573    1
  4447  5215  5306    1
  4448  5215  5308    1
  4449  2040  2054    1
  4450  2040  2053    1
  4451  6484  6567    1
  4452  6484  6565    1
  4453  6484  6733    1
  4454  8375  8466    1
  4455  8375  8468    1
  4456  2692  2775    1
  4457  2692  2773    1
  4458  2692  2941    1
  4459  9644  9727    1
  4460  9644  9725    1
  4461  9644  9893    1
  4462  1408  1422    1
  4463  1408  1421    1
  4464  5852  5935    1
  4465  5852  5933    1
  4466  5852  6101    1
  4467  7743  7834    1
  4468  7743  7836    1
  4469  4568  4582    1
  4470  4568  4581    1
  4471  9012  9095    1
  4472  9012  9093    1
  4473  9012  9261    1
  4474   776   790    1
  4475   776   789    1
  4476  5220  5303    1
  4477  5220  5301    1
  4478  5220  5469    1
  4479  3936  3950    1
  4480  3936  3949    1
  4481  2054  2042    1
  4482  2054  2046    2
  4483  8380  8463    1
  4484  8380  8461    1
  4485  8380  8629    1
  4486   144   158    1
  4487   144   157    1
  4488  2043  2053    2
  4489  7096  7110    1
  4490  7096  7109    1
  4491  2116  2264    1
  4492  2042  2052    1
  4493  2042  2048    1
  4494  2117  4644   ar
  4495  2117  2263   ar
  4496  3304  3318    1
  4497  3304  3317    1
  4498  1422  1410    1
  4499  1422  1414    2
  4500  7748  7831    1
  4501  7748  7829    1
  4502  7748  7997    1
  4503  1411  1421    2
  4504  6464  6478    1
  4505  6464  6477    1
  4506  1484  1632    1
  4507  1410  1420    1
  4508  1410  1416    1
  4509  1485  4012   ar
  4510  1485  1631   ar
  4511  4582  4570    1
  4512  4582  4574    2
  4513  2672  2686    1
  4514  2672  2685    1
  4515  4571  4581    2
  4516  9624  9638    1
  4517  9624  9637    1
  4518  4644  4792   ar
  4519   790   778    1
  4520   790   782    2
  4521  4570  4580    1
  4522  4570  4576    1
  4523   779   789    2
  4524  4645  7172   ar
  4525  4645  4791   ar
  4526  5832  5846    1
  4527  5832  5845    1
  4528   852  1000    1
  4529  2023  2021    1
  4530  2023  2024    2
  4531   778   788    1
  4532   778   784    1
  4533   853  3380   ar
  4534   853   999   ar
  4535  3950  3938    1
  4536  3950  3942    2
  4537  2146  2270    1
  4538  3939  3949    2
  4539  8992  9006    1
  4540  8992  9005    1
  4541  4012  4160   ar
  4542   158   146    1
  4543   158   150    2
  4544  3938  3948    1
  4545  3938  3944    1
  4546   147   157    2
  4547  4013  6540   ar
  4548  4013  4159   ar
  4549  7110  7098    1
  4550  7110  7102    2
  4551  2114  2262    1
  4552  2119  1482   ar
  4553  2119  2261   ar
  4554  5200  5214    1
  4555  5200  5213    1
  4556   220   368    1
  4557  7099  7109    2
  4558  1391  1389    1
  4559  1391  1392    2
  4560   146   156    1
  4561   146   152    1
  4562  7172  7320   ar
  4563   221  2748   ar
  4564   221   367   ar
  4565  3318  3306    1
  4566  3318  3310    2
  4567  7098  7108    1
  4568  7098  7104    1
  4569  1514  1638    1
  4570  3307  3317    2
  4571  7173  9700   ar
  4572  7173  7319   ar
  4573  8360  8374    1
  4574  8360  8373    1
  4575  3380  3528   ar
  4576  4551  4549    1
  4577  4551  4552    2
  4578  2143  2269    1
  4579  3306  3316    1
  4580  3306  3312    1
  4581  2141  2267    1
  4582  2148  2268    1
  4583  3381  5908   ar
  4584  3381  3527   ar
  4585  6478  6466    1
  4586  6478  6470    2
  4587  1482  1630   ar
  4588  1487   850   ar
  4589  1487  1629   ar
  4590  4674  4798    1
  4591  6467  6477    2
  4592   759   757    1
  4593   759   760    2
  4594  6540  6688   ar
  4595  2686  2674    1
  4596  2686  2678    2
  4597  6466  6476    1
  4598  6466  6472    1
  4599   882  1006    1
  4600  2675  2685    2
  4601  6541  9068   ar
  4602  6541  6687   ar
  4603  9638  9626    1
  4604  9638  9630    2
  4605  4642  4790    1
  4606  4647  4010   ar
  4607  4647  4789   ar
  4608  7728  7742    1
  4609  7728  7741    1
  4610  2748  2896   ar
  4611  9627  9637    2
  4612  3919  3917    1
  4613  3919  3920    2
  4614  1511  1637    1
  4615  2021  2027    1
  4616  2674  2684    1
  4617  2674  2680    1
  4618  1509  1635    1
  4619  9700  9848   ar
  4620  1516  1636    1
  4621  2749  5276   ar
  4622  2749  2895   ar
  4623  5846  5834    1
  4624  5846  5838    2
  4625  9626  9636    1
  4626  9626  9632    1
  4627   850   998   ar
  4628   855   218   ar
  4629   855   997   ar
  4630  4042  4166    1
  4631  5835  5845    2
  4632  9701  9847    1
  4633   127   125    1
  4634   127   128    2
  4635  5908  6056   ar
  4636  7079  7077    1
  4637  7079  7080    2
  4638  4671  4797    1
  4639  5834  5844    1
  4640  5834  5840    1
  4641  4669  4795    1
  4642   250   374    1
  4643  4676  4796    1
  4644  5909  8436   ar
  4645  5909  6055   ar
  4646  9006  8994    1
  4647  9006  8998    2
  4648  4010  4158   ar
  4649  4015  3378   ar
  4650  4015  4157   ar
  4651  7202  7326    1
  4652  8995  9005    2
  4653  3287  3285    1
  4654  3287  3288    2
  4655   879  1005    1
  4656  1389  1395    1
  4657   877  1003    1
  4658  9068  9216   ar
  4659   884  1004    1
  4660  5214  5202    1
  4661  5214  5206    2
  4662  8994  9004    1
  4663  8994  9000    1
  4664   218   366   ar
  4665   223   365    1
  4666  3410  3534    1
  4667  5203  5213    2
  4668  9069  9215    1
  4669  7170  7318    1
  4670  7175  6538   ar
  4671  7175  7317   ar
  4672  5276  5424   ar
  4673  6447  6445    1
  4674  6447  6448    2
  4675  4039  4165    1
  4676  4549  4555    1
  4677  5202  5212    1
  4678  5202  5208    1
  4679  4037  4163    1
  4680  4044  4164    1
  4681  5277  7804   ar
  4682  5277  5423   ar
  4683  8374  8362    1
  4684  8374  8366    2
  4685  3378  3526   ar
  4686  3383  2746   ar
  4687  3383  3525   ar
  4688  6570  6694    1
  4689  8363  8373    2
  4690  2655  2653    1
  4691  2655  2656    2
  4692   247   373    1
  4693   757   763    1
  4694   245   371    1
  4695  8436  8584   ar
  4696  9607  9605    1
  4697  9607  9608    2
  4698  7199  7325    1
  4699   252   372    1
  4700  8362  8372    1
  4701  8362  8368    1
  4702  7197  7323    1
  4703  2778  2902    1
  4704  7204  7324    1
  4705  8437  8583    1
  4706  6538  6686   ar
  4707  6543  5906   ar
  4708  6543  6685   ar
  4709  9730  9854    1
  4710  5815  5813    1
  4711  5815  5816    2
  4712  3407  3533    1
  4713  3917  3923    1
  4714  3405  3531    1
  4715  3412  3532    1
  4716  7742  7730    1
  4717  7742  7734    2
  4718  2746  2894   ar
  4719  2751  2893    1
  4720  5938  6062    1
  4721  7731  7741    2
  4722  9698  9846    1
  4723  9703  9066   ar
  4724  9703  9845   ar
  4725   125   131    1
  4726  7804  7952   ar
  4727  8975  8973    1
  4728  8975  8976    2
  4729  6567  6693    1
  4730  7077  7083    1
  4731  7730  7740    1
  4732  7730  7736    1
  4733  6565  6691    1
  4734  6572  6692    1
  4735  7805  7951    1
  4736  5906  6054   ar
  4737  5911  5274   ar
  4738  5911  6053   ar
  4739  9098  9222    1
  4740  5183  5181    1
  4741  5183  5184    2
  4742  2775  2901    1
  4743  3285  3291    1
  4744  2773  2899    1
  4745  9727  9853    1
  4746  2780  2900    1
  4747  9725  9851    1
  4748  5306  5430    1
  4749  9732  9852    1
  4750  9066  9214   ar
  4751  9071  8434   ar
  4752  9071  9213   ar
  4753  8343  8341    1
  4754  8343  8344    2
  4755  5935  6061    1
  4756  6445  6451    1
  4757  5933  6059    1
  4758  5940  6060    1
  4759  5274  5422   ar
  4760  5279  5421    1
  4761  8466  8590    1
  4762  2653  2659    1
  4763  9095  9221    1
  4764  9605  9611    1
  4765  9093  9219    1
  4766  9100  9220    1
  4767  8434  8582   ar
  4768  8439  7802   ar
  4769  8439  8581   ar
  4770  7711  7709    1
  4771  7711  7712    2
  4772  5303  5429    1
  4773  5813  5819    1
  4774  5301  5427    1
  4775  5308  5428    1
  4776  7834  7958    1
  4777  8463  8589    1
  4778  8973  8979    1
  4779  8461  8587    1
  4780  8468  8588    1
  4781  7802  7950   ar
  4782  7807  7949    1
  4783  5181  5187    1
  4784  7831  7957    1
  4785  8341  8347    1
  4786  7829  7955    1
  4787  7836  7956    1
  4788  2053  2044    2
  4789  2053  2041    1
  4790  7709  7715    1
  4791  1421  1412    2
  4792  1421  1409    1
  4793  4581  4572    2
  4794  4581  4569    1
  4795   789   780    2
  4796   789   777    1
  4797  3949  3940    2
  4798  3949  3937    1
  4799   157   148    2
  4800   157   145    1
  4801  7109  7100    2
  4802  7109  7097    1
  4803  3317  3308    2
  4804  3317  3305    1
  4805  6477  6468    2
  4806  6477  6465    1
  4807  2685  2676    2
  4808  2685  2673    1
  4809  9637  9628    2
  4810  9637  9625    1
  4811  5845  5836    2
  4812  5845  5833    1
  4813  9005  8996    2
  4814  9005  8993    1
  4815  5213  5204    2
  4816  5213  5201    1
  4817  8373  8364    2
  4818  8373  8361    1
  4819  7741  7732    2
  4820  7741  7729    1
  4821  2227  2310    1
  4822  2264  2270    2
  4823  2264  2276    1
  4824  2263  2269    1
  4825  2263  2273   ar
  4826  1595  1678    1
  4827  2310  2217    1
  4828  2270  2302    1
  4829  4755  4838    1
  4830  1632  1638    2
  4831  1632  1644    1
  4832  2269  2303    1
  4833  1631  1637    1
  4834  1631  1641   ar
  4835   963  1046    1
  4836  1678  1585    1
  4837  1638  1670    1
  4838  4792  4798    1
  4839  4792  4804   ar
  4840  4791  4797    1
  4841  4791  4801   ar
  4842  4123  4206    1
  4843  4838  4745    1
  4844  1000  1006    2
  4845  1000  1012    1
  4846  4798  4830    1
  4847  2267  2261    1
  4848  2267  2305    1
  4849  1637  1671    1
  4850   999  1005    1
  4851   999  1009   ar
  4852   331   414    1
  4853  2268  2262    2
  4854  2268  2300    1
  4855  1046   953    1
  4856  1006  1038    1
  4857  7283  7366    1
  4858  2024  2030    1
  4859  2024  2022    1
  4860  2261  2271   ar
  4861  4160  4166    1
  4862  4160  4172   ar
  4863  4797  4831    1
  4864  4159  4165    1
  4865  4159  4169   ar
  4866  3491  3574    1
  4867  4206  4113    1
  4868   368   374    2
  4869   368   380    1
  4870  2262  2278    1
  4871  4166  4198    1
  4872  1635  1629    1
  4873  1635  1673    1
  4874  7320  7326    1
  4875  7320  7332   ar
  4876  1005  1039    1
  4877   367   373    1
  4878   367   377   ar
  4879  1636  1630    1
  4880  1636  1668    1
  4881  2309  2228    1
  4882   414   321    1
  4883   374   406    1
  4884  7319  7325    1
  4885  7319  7329   ar
  4886  6651  6734    1
  4887  1392  1398    1
  4888  1392  1390    1
  4889  1629  1639   ar
  4890  7366  7273    1
  4891  3528  3534    1
  4892  3528  3540   ar
  4893  7326  7358    1
  4894  4795  4789    1
  4895  4795  4833    1
  4896  4165  4199    1
  4897  3527  3533    1
  4898  3527  3537   ar
  4899  2859  2942    1
  4900  4796  4790    2
  4901  4796  4828    1
  4902  3574  3481    1
  4903  1630  1646   ar
  4904  3534  3566    1
  4905  9811  9894    1
  4906  4552  4558    1
  4907  4552  4550    1
  4908  4789  4799   ar
  4909  1003   997    1
  4910  1003  1041    1
  4911  6688  6694    1
  4912  6688  6700   ar
  4913   373   407    1
  4914  7325  7359    1
  4915  1004   998    1
  4916  1004  1036    1
  4917  1677  1596    1
  4918  6687  6693    1
  4919  6687  6697   ar
  4920  6019  6102    1
  4921   760   766    1
  4922   760   758    1
  4923   997  1007   ar
  4924  6734  6641    1
  4925  2896  2902    1
  4926  2896  2908   ar
  4927  4790  4806    1
  4928  6694  6726    1
  4929  4163  4157    1
  4930  4163  4201    1
  4931  9848  9854    1
  4932  9848  9860   ar
  4933  3533  3567    1
  4934  2895  2901    1
  4935  2895  2905   ar
  4936  4164  4158    1
  4937  4164  4196    1
  4938  4837  4756    1
  4939  2942  2849    1
  4940   998  1014   ar
  4941  2902  2934    1
  4942  9847  9853    2
  4943  9847  9857    1
  4944  9179  9262    1
  4945  3920  3926    1
  4946  3920  3918    1
  4947  4157  4167   ar
  4948   371   365    2
  4949   371   409    1
  4950  9894  9801    1
  4951  6056  6062    1
  4952  6056  6068   ar
  4953  9854  9886    1
  4954  7323  7317    1
  4955  7323  7361    1
  4956  6693  6727    1
  4957   372   366    1
  4958   372   404    1
  4959  1045   964    1
  4960  6055  6061    1
  4961  6055  6065   ar
  4962  5387  5470    1
  4963  7324  7318    2
  4964  7324  7356    1
  4965   128   134    1
  4966   128   126    1
  4967   365   375    1
  4968  6102  6009    1
  4969  4158  4174   ar
  4970  6062  6094    1
  4971  7080  7086    1
  4972  7080  7078    1
  4973  7317  7327   ar
  4974  3531  3525    1
  4975  3531  3569    1
  4976  9216  9222    1
  4977  9216  9228   ar
  4978  2901  2935    1
  4979  9853  9887    1
  4980  3532  3526    1
  4981  3532  3564    1
  4982  4205  4124    1
  4983   366   382   ar
  4984  9215  9221    2
  4985  9215  9225    1
  4986  8547  8630    1
  4987  2027  2038    1
  4988  2027  2022    1
  4989  3288  3294    1
  4990  3288  3286    1
  4991  3525  3535   ar
  4992  9262  9169    1
  4993  5424  5430    1
  4994  5424  5436   ar
  4995  7318  7334    1
  4996  9222  9254    1
  4997  6691  6685    1
  4998  6691  6729    1
  4999  6061  6095    1
  5000   413   332    1
  5001  5423  5429    1
  5002  5423  5433   ar
  5003  6692  6686    1
  5004  6692  6724    1
  5005  7365  7284    1
  5006  5470  5377    1
  5007  3526  3542   ar
  5008  5430  5462    1
  5009  6448  6454    1
  5010  6448  6446    1
  5011  6685  6695   ar
  5012  2899  2893    2
  5013  2899  2937    1
  5014  8584  8590    1
  5015  8584  8596   ar
  5016  9851  9845    1
  5017  9851  9889    1
  5018  9221  9255    1
  5019  2900  2894    1
  5020  2900  2932    1
  5021  3573  3492    1
  5022  8583  8589    2
  5023  8583  8593    1
  5024  7915  7998    1
  5025  9852  9846    2
  5026  9852  9884    1
  5027  1395  1406    1
  5028  1395  1390    1
  5029  2656  2662    1
  5030  2656  2654    1
  5031  2893  2903    1
  5032  8630  8537    1
  5033  6686  6702   ar
  5034  8590  8622    1
  5035  9608  9614    1
  5036  9608  9606    1
  5037  9845  9855   ar
  5038  6059  6053    1
  5039  6059  6097    1
  5040  5429  5463    1
  5041  6060  6054    1
  5042  6060  6092    1
  5043  6733  6652    1
  5044  2894  2910   ar
  5045  4555  4566    1
  5046  4555  4550    1
  5047  5816  5822    1
  5048  5816  5814    1
  5049  6053  6063   ar
  5050  7952  7958    1
  5051  7952  7964   ar
  5052  9846  9862    1
  5053  9219  9213    1
  5054  9219  9257    1
  5055  8589  8623    1
  5056  2941  2860    1
  5057  7951  7957    2
  5058  7951  7961    1
  5059  9220  9214    1
  5060  9220  9252    1
  5061  9893  9812    1
  5062   763   774    1
  5063   763   758    1
  5064  7998  7905    1
  5065  6054  6070   ar
  5066  7958  7990    1
  5067  8976  8982    1
  5068  8976  8974    1
  5069  9213  9223   ar
  5070  5427  5421    2
  5071  5427  5465    1
  5072  5428  5422    1
  5073  5428  5460    1
  5074  6101  6020    1
  5075  3923  3934    1
  5076  3923  3918    1
  5077  5184  5190    1
  5078  5184  5182    1
  5079  5421  5431    1
  5080  9214  9230   ar
  5081  8587  8581    1
  5082  8587  8625    1
  5083  7957  7991    1
  5084  8588  8582    1
  5085  8588  8620    1
  5086  9261  9180    1
  5087   131   142    1
  5088   131   126    1
  5089  5422  5438   ar
  5090  7083  7094    1
  5091  7083  7078    1
  5092  8344  8350    1
  5093  8344  8342    1
  5094  8581  8591   ar
  5095  5469  5388    1
  5096  3291  3302    1
  5097  3291  3286    1
  5098  8582  8598   ar
  5099  7955  7949    2
  5100  7955  7993    1
  5101  7956  7950    1
  5102  7956  7988    1
  5103  8629  8548    1
  5104  6451  6462    1
  5105  6451  6446    1
  5106  7712  7718    1
  5107  7712  7710    1
  5108  7949  7959    1
  5109  2659  2670    1
  5110  2659  2654    1
  5111  7950  7966   ar
  5112  9611  9622    1
  5113  9611  9606    1
  5114  7997  7916    1
  5115  5819  5830    1
  5116  5819  5814    1
  5117  8979  8990    1
  5118  8979  8974    1
  5119  2047  2041    1
  5120  5187  5198    1
  5121  5187  5182    1
  5122  8347  8358    1
  5123  8347  8342    1
  5124  1415  1409    1
  5125  4575  4569    1
  5126  7715  7726    1
  5127  7715  7710    1
  5128   783   777    1
  5129  3943  3937    1
  5130   151   145    1
  5131  7103  7097    1
  5132  3311  3305    1
  5133  6471  6465    1
  5134  2679  2673    1
  5135  9631  9625    1
  5136  5839  5833    1
  5137  2041  2049    1
  5138  2041  2050    1
  5139  8999  8993    1
  5140  2022  2028    1
  5141  5207  5201    1
  5142  1409  1417    1
  5143  1409  1418    1
  5144  8367  8361    1
  5145  4569  4577    1
  5146  4569  4578    1
  5147  1390  1396    1
  5148   777   785    1
  5149   777   786    1
  5150  4550  4556    1
  5151  7735  7729    1
  5152  3937  3945    1
  5153  3937  3946    1
  5154   758   764    1
  5155  2302  2217    1
  5156   145   153    1
  5157   145   154    1
  5158  7097  7105    1
  5159  7097  7106    1
  5160  3918  3924    1
  5161  3305  3313    1
  5162  3305  3314    1
  5163   126   132    1
  5164  2276  2226    1
  5165  2303  2214    1
  5166  7078  7084    1
  5167  1670  1585    1
  5168  2300  2217    1
  5169  6465  6473    1
  5170  6465  6474    1
  5171  3286  3292    1
  5172  2305  2214    1
  5173  2273  4804   ar
  5174  2273  2224    1
  5175  4830  4745    1
  5176  2673  2681    1
  5177  2673  2682    1
  5178  1644  1594    1
  5179  9625  9633    1
  5180  9625  9634    1
  5181  1671  1582    1
  5182  6446  6452    1
  5183  1038   953    1
  5184  1668  1585    1
  5185  5833  5841    1
  5186  5833  5842    1
  5187  2654  2660    1
  5188  1673  1582    1
  5189  4804  4754    1
  5190  4831  4742    1
  5191  9606  9612    1
  5192  1641  4172   ar
  5193  1641  1592    1
  5194  4198  4113    1
  5195  4828  4745    1
  5196  1012   962    1
  5197  8993  9001    1
  5198  8993  9002    1
  5199  1039   950    1
  5200  5814  5820    1
  5201  4833  4742    1
  5202   406   321    1
  5203  1036   953    1
  5204  4801  7332   ar
  5205  4801  4752    1
  5206  7358  7273    1
  5207  5201  5209    1
  5208  5201  5210    1
  5209  1041   950    1
  5210  4172  4122    1
  5211  4199  4110    1
  5212  8974  8980    1
  5213  1009  3540   ar
  5214  1009   960    1
  5215  3566  3481    1
  5216  4196  4113    1
  5217  2271  1646   ar
  5218  2271  2222    1
  5219   380   330    1
  5220  8361  8369    1
  5221  8361  8370    1
  5222   407   318    1
  5223  5182  5188    1
  5224  4201  4110    1
  5225  7332  7282    1
  5226  7359  7270    1
  5227   404   321    1
  5228  4169  6700   ar
  5229  4169  4120    1
  5230  2278  2279    1
  5231  6726  6641    1
  5232  7356  7273    1
  5233   409   318    1
  5234  3540  3490    1
  5235  3567  3478    1
  5236  8342  8348    1
  5237  7361  7270    1
  5238   377  2908   ar
  5239   377   328    1
  5240  2934  2849    1
  5241  3564  3481    1
  5242  1639  1014   ar
  5243  1639  1590    1
  5244  7329  9860   ar
  5245  7329  7280    1
  5246  9886  9801    1
  5247  7729  7737    1
  5248  7729  7738    1
  5249  3569  3478    1
  5250  6700  6650    1
  5251  6727  6638    1
  5252  3537  6068   ar
  5253  3537  3488    1
  5254  1646  1647    1
  5255  6094  6009    1
  5256  6724  6641    1
  5257  4799  4174   ar
  5258  4799  4750    1
  5259  2908  2858    1
  5260  2935  2846    1
  5261  7710  7716    1
  5262  6729  6638    1
  5263  9860  9810    1
  5264  9887  9798    1
  5265  2932  2849    1
  5266  1007   382   ar
  5267  1007   958    1
  5268  6697  9228   ar
  5269  6697  6648    1
  5270  4806  4807    1
  5271  9254  9169    1
  5272  9884  9801    1
  5273  2937  2846    1
  5274  6068  6018    1
  5275  6095  6006    1
  5276  9889  9798    1
  5277  2905  5436   ar
  5278  2905  2856    1
  5279  1014  1015    1
  5280  5462  5377    1
  5281  6092  6009    1
  5282  4167  3542   ar
  5283  4167  4118    1
  5284  9857  9808    1
  5285  6097  6006    1
  5286  9228  9178    1
  5287  9255  9166    1
  5288   375   326    1
  5289  6065  8596   ar
  5290  6065  6016    1
  5291  4174  4175    1
  5292  8622  8537    1
  5293  9252  9169    1
  5294  7327  6702   ar
  5295  7327  7278    1
  5296  5436  5386    1
  5297  5463  5374    1
  5298  9257  9166    1
  5299   382   383    1
  5300  5460  5377    1
  5301  3535  2910   ar
  5302  3535  3486    1
  5303  9225  9176    1
  5304  7334  7335    1
  5305  5465  5374    1
  5306  8596  8546    1
  5307  8623  8534    1
  5308  5433  7964   ar
  5309  5433  5384    1
  5310  3542  3543    1
  5311  7990  7905    1
  5312  8620  8537    1
  5313  6695  6070   ar
  5314  6695  6646    1
  5315  8625  8534    1
  5316  2903  2854    1
  5317  8593  8544    1
  5318  6702  6703    1
  5319  9855  9230   ar
  5320  9855  9806    1
  5321  7964  7914    1
  5322  7991  7902    1
  5323  2910  2911    1
  5324  7988  7905    1
  5325  6063  5438   ar
  5326  6063  6014    1
  5327  9862  9863    1
  5328  7993  7902    1
  5329  7961  7912    1
  5330  6070  6071    1
  5331  9223  8598   ar
  5332  9223  9174    1
  5333  5431  5382    1
  5334  9230  9231    1
  5335  5438  5439    1
  5336  8591  7966   ar
  5337  8591  8542    1
  5338  8598  8599    1
  5339  7959  7910    1
  5340  2217  2298    1
  5341  2217  2296    1
  5342  2217  2286    1
  5343  7966  7967    1
  5344  1585  1666    1
  5345  1585  1664    1
  5346  1585  1654    1
  5347  4745  4826    1
  5348  4745  4824    1
  5349  4745  4814    1
  5350   953  1034    1
  5351   953  1032    1
  5352   953  1022    1
  5353  2214  2291    1
  5354  2214  2293    1
  5355  2214  2289    1
  5356  4113  4194    1
  5357  4113  4192    1
  5358  4113  4182    1
  5359   321   402    1
  5360   321   400    1
  5361   321   390    1
  5362  7273  7354    1
  5363  7273  7352    1
  5364  7273  7342    1
  5365  1582  1659    1
  5366  1582  1661    1
  5367  1582  1657    1
  5368  3481  3562    1
  5369  3481  3560    1
  5370  3481  3550    1
  5371  4742  4819    1
  5372  4742  4821    1
  5373  4742  4817    1
  5374  6641  6722    1
  5375  6641  6720    1
  5376  6641  6710    1
  5377   950  1027    1
  5378   950  1029    1
  5379   950  1025    1
  5380  2849  2930    1
  5381  2849  2928    1
  5382  2849  2918    1
  5383  9801  9882    1
  5384  9801  9880    1
  5385  9801  9870    1
  5386  4110  4187    1
  5387  4110  4189    1
  5388  4110  4185    1
  5389  6009  6090    1
  5390  6009  6088    1
  5391  6009  6078    1
  5392   318   395    1
  5393   318   397    1
  5394   318   393    1
  5395  7270  7347    1
  5396  7270  7349    1
  5397  7270  7345    1
  5398  9169  9250    1
  5399  9169  9248    1
  5400  9169  9238    1
  5401  3478  3555    1
  5402  3478  3557    1
  5403  3478  3553    1
  5404  5377  5458    1
  5405  5377  5456    1
  5406  5377  5446    1
  5407  6638  6715    1
  5408  6638  6717    1
  5409  6638  6713    1
  5410  8537  8618    1
  5411  8537  8616    1
  5412  8537  8606    1
  5413  2846  2923    1
  5414  2846  2925    1
  5415  2846  2921    1
  5416  9798  9875    1
  5417  9798  9877    1
  5418  9798  9873    1
  5419  6006  6083    1
  5420  6006  6085    1
  5421  6006  6081    1
  5422  7905  7986    1
  5423  7905  7984    1
  5424  7905  7974    1
  5425  9166  9243    1
  5426  9166  9245    1
  5427  9166  9241    1
  5428  5374  5451    1
  5429  5374  5453    1
  5430  5374  5449    1
  5431  8534  8611    1
  5432  8534  8613    1
  5433  8534  8609    1
  5434  2237  2307    1
  5435  7902  7979    1
  5436  7902  7981    1
  5437  7902  7977    1
  5438  2031  2025    1
  5439  1605  1675    1
  5440  1399  1393    1
  5441  2298  2216    1
  5442  4765  4835    1
  5443  4559  4553    1
  5444  2028  2036    1
  5445  2028  2025    1
  5446  2028  2039    1
  5447   973  1043    1
  5448   767   761    1
  5449  1666  1584    1
  5450  4133  4203    1
  5451  3927  3921    1
  5452  1396  1404    1
  5453  1396  1393    1
  5454  1396  1407    1
  5455   341   411    1
  5456  4826  4744    1
  5457  2033  2025    1
  5458   135   129    1
  5459  7293  7363    1
  5460  7087  7081    1
  5461  4556  4564    1
  5462  4556  4553    1
  5463  4556  4567    1
  5464  1034   952    1
  5465  3501  3571    1
  5466  3295  3289    1
  5467   764   772    1
  5468   764   761    1
  5469   764   775    1
  5470  2291  2220    1
  5471  4194  4112    1
  5472  1401  1393    1
  5473  6661  6731    1
  5474  2279  2235    1
  5475  6455  6449    1
  5476  3924  3932    1
  5477  3924  3921    1
  5478  3924  3935    1
  5479   402   320    1
  5480  2869  2939    1
  5481  7354  7272    1
  5482  4561  4553    1
  5483  2663  2657    1
  5484   132   140    1
  5485   132   129    1
  5486   132   143    1
  5487  9821  9891    1
  5488  9615  9609    1
  5489  7084  7092    1
  5490  7084  7081    1
  5491  7084  7095    1
  5492  1659  1588    1
  5493  3562  3480    1
  5494   769   761    1
  5495  6029  6099    1
  5496  1647  1603    1
  5497  1647  2236    1
  5498  5823  5817    1
  5499  3292  3300    1
  5500  3292  3289    1
  5501  3292  3303    1
  5502  4819  4748    1
  5503  6722  6640    1
  5504  3929  3921    1
  5505  9189  9259    1
  5506  4807  4763    1
  5507  8983  8977    1
  5508  6452  6460    1
  5509  6452  6449    1
  5510  6452  6463    1
  5511  1027   956    1
  5512  2930  2848    1
  5513   137   129    1
  5514  5397  5467    1
  5515  1015   971    1
  5516  1015  1604    1
  5517  9882  9800    1
  5518  7089  7081    1
  5519  5191  5185    1
  5520  2660  2668    1
  5521  2660  2657    1
  5522  2660  2671    1
  5523  9612  9620    1
  5524  9612  9609    1
  5525  9612  9623    1
  5526  4187  4116    1
  5527  6090  6008    1
  5528  3297  3289    1
  5529  8557  8627    1
  5530  4175  4131    1
  5531  4175  4764    1
  5532  8351  8345    1
  5533  5820  5828    1
  5534  5820  5817    1
  5535  5820  5831    1
  5536   395   324    1
  5537  7347  7276    1
  5538   383   339    1
  5539   383   972    1
  5540  9250  9168    1
  5541  6457  6449    1
  5542  7335  7291    1
  5543  8980  8988    1
  5544  8980  8977    1
  5545  8980  8991    1
  5546  3555  3484    1
  5547  5458  5376    1
  5548  2665  2657    1
  5549  7925  7995    1
  5550  3543  3499    1
  5551  3543  4132    1
  5552  9617  9609    1
  5553  7719  7713    1
  5554  5188  5196    1
  5555  5188  5185    1
  5556  5188  5199    1
  5557  6715  6644    1
  5558  8618  8536    1
  5559  5825  5817    1
  5560  6703  6659    1
  5561  6703  7292    1
  5562  8348  8356    1
  5563  8348  8345    1
  5564  8348  8359    1
  5565  2923  2852    1
  5566  2025  2035    1
  5567  9875  9804    1
  5568  2911  2867    1
  5569  2911  3500    1
  5570  8985  8977    1
  5571  9863  9819    1
  5572  6083  6012    1
  5573  7986  7904    1
  5574  5193  5185    1
  5575  6071  6027    1
  5576  6071  6660    1
  5577  7716  7724    1
  5578  7716  7713    1
  5579  7716  7727    1
  5580  1393  1403    1
  5581  9243  9172    1
  5582  8353  8345    1
  5583  9231  9187    1
  5584  9231  9820    1
  5585  5451  5380    1
  5586  4553  4563    1
  5587  5439  5395    1
  5588  5439  6028    1
  5589   761   771    1
  5590  2296  2216    1
  5591  8611  8540    1
  5592  7721  7713    1
  5593  8599  8555    1
  5594  8599  9188    1
  5595  3921  3931    1
  5596   129   139    1
  5597  1664  1584    1
  5598  7979  7908    1
  5599  7081  7091    1
  5600  2293  2220    1
  5601  7967  7923    1
  5602  7967  8556    1
  5603  3289  3299    1
  5604  4824  4744    1
  5605  1032   952    1
  5606  6449  6459    1
  5607  2307  2220    1
  5608  1661  1588    1
  5609  2657  2667    1
  5610  4192  4112    1
  5611  9609  9619    1
  5612  4821  4748    1
  5613   400   320    1
  5614  5817  5827    1
  5615  1675  1588    1
  5616  7352  7272    1
  5617  1029   956    1
  5618  3560  3480    1
  5619  8977  8987    1
  5620  4835  4748    1
  5621  4189  4116    1
  5622  5185  5195    1
  5623  1043   956    1
  5624  6720  6640    1
  5625   397   324    1
  5626  7349  7276    1
  5627  2928  2848    1
  5628  8345  8355    1
  5629  4203  4116    1
  5630  9880  9800    1
  5631  3557  3484    1
  5632   411   324    1
  5633  6088  6008    1
  5634  7363  7276    1
  5635  6717  6644    1
  5636  7713  7723    1
  5637  3571  3484    1
  5638  9248  9168    1
  5639  2925  2852    1
  5640  9877  9804    1
  5641  5456  5376    1
  5642  6731  6644    1
  5643  6085  6012    1
  5644  2939  2852    1
  5645  8616  8536    1
  5646  9891  9804    1
  5647  9245  9172    1
  5648  6099  6012    1
  5649  5453  5380    1
  5650  7984  7904    1
  5651  9259  9172    1
  5652  8613  8540    1
  5653  5467  5380    1
  5654  2286  2248    1
  5655  8627  8540    1
  5656  7981  7908    1
  5657  1654  1616    1
  5658  7995  7908    1
  5659  4814  4776    1
  5660  1022   984    1
  5661  2289  2245    1
  5662  4182  4144    1
  5663   390   352    1
  5664  1657  1613    1
  5665  7342  7304    1
  5666  3550  3512    1
  5667  4817  4773    1
  5668  1025   981    1
  5669  6710  6672    1
  5670  2216  2287    1
  5671  2216  2336    1
  5672  2918  2880    1
  5673  4185  4141    1
  5674  9870  9832    1
  5675   393   349    1
  5676  6078  6040    1
  5677  1584  1655    1
  5678  1584  1704    1
  5679  7345  7301    1
  5680  2220  2283    1
  5681  2220  2333    1
  5682  3553  3509    1
  5683  9238  9200    1
  5684  4744  4815    1
  5685  4744  4864    1
  5686  5446  5408    1
  5687   952  1023    1
  5688   952  1072    1
  5689  6713  6669    1
  5690  1588  1651    1
  5691  1588  1701    1
  5692  2921  2877    1
  5693  8606  8568    1
  5694  4112  4183    1
  5695  4112  4232    1
  5696  9873  9829    1
  5697  4748  4811    1
  5698  4748  4861    1
  5699   320   391    1
  5700   320   440    1
  5701  6081  6037    1
  5702  7272  7343    1
  5703  7272  7392    1
  5704   956  1019    1
  5705   956  1069    1
  5706  7974  7936    1
  5707  3480  3551    1
  5708  3480  3600    1
  5709  9241  9197    1
  5710  4116  4179    1
  5711  4116  4229    1
  5712  5449  5405    1
  5713  6640  6711    1
  5714  6640  6760    1
  5715   324   387    1
  5716   324   437    1
  5717  7276  7339    1
  5718  7276  7389    1
  5719  2848  2919    1
  5720  2848  2968    1
  5721  8609  8565    1
  5722  9800  9871    1
  5723  9800  9920    1
  5724  3484  3547    1
  5725  3484  3597    1
  5726  6008  6079    1
  5727  6008  6128    1
  5728  6644  6707    1
  5729  6644  6757    1
  5730  7977  7933    1
  5731  9168  9239    1
  5732  9168  9288    1
  5733  2852  2915    1
  5734  2852  2965    1
  5735  9804  9867    1
  5736  9804  9917    1
  5737  5376  5447    1
  5738  5376  5496    1
  5739  6012  6075    1
  5740  6012  6125    1
  5741  8536  8607    1
  5742  8536  8656    1
  5743  9172  9235    1
  5744  9172  9285    1
  5745  5380  5443    1
  5746  5380  5493    1
  5747  7904  7975    1
  5748  7904  8024    1
  5749  2234  2256    1
  5750  8540  8603    1
  5751  8540  8653    1
  5752  1602  1624    1
  5753  7908  7971    1
  5754  7908  8021    1
  5755  2232  2259    1
  5756  4762  4784    1
  5757   970   992    1
  5758  1600  1627    1
  5759  4130  4152    1
  5760   338   360    1
  5761  4760  4787    1
  5762  7290  7312    1
  5763   968   995    1
  5764  3498  3520    1
  5765  4128  4155    1
  5766  6658  6680    1
  5767   336   363    1
  5768  2866  2888    1
  5769  7288  7315    1
  5770  9818  9840    1
  5771  3496  3523    1
  5772  6026  6048    1
  5773  6656  6683    1
  5774  9186  9208    1
  5775  2864  2891    1
  5776  5394  5416    1
  5777  9816  9843    1
  5778  6024  6051    1
  5779  8554  8576    1
  5780  9184  9211    1
  5781  5392  5419    1
  5782  7922  7944    1
  5783  8552  8579    1
  5784  2248  2287    1
  5785  2248  2252    1
  5786  7920  7947    1
  5787  1616  1655    1
  5788  1616  1620    1
  5789  4776  4815    1
  5790  4776  4780    1
  5791   984  1023    1
  5792   984   988    1
  5793  2245  2283    1
  5794  2245  2249    1
  5795  4144  4183    1
  5796  4144  4148    1
  5797   352   391    1
  5798   352   356    1
  5799  7304  7343    1
  5800  7304  7308    1
  5801  1613  1651    1
  5802  1613  1617    1
  5803  3512  3551    1
  5804  3512  3516    1
  5805  4773  4811    1
  5806  4773  4777    1
  5807  6672  6711    1
  5808  6672  6676    1
  5809   981  1019    1
  5810   981   985    1
  5811  2880  2919    1
  5812  2880  2884    1
  5813  9832  9871    1
  5814  9832  9836    1
  5815  4141  4179    1
  5816  4141  4145    1
  5817  6040  6079    1
  5818  6040  6044    1
  5819   349   387    1
  5820   349   353    1
  5821  7301  7339    1
  5822  7301  7305    1
  5823  9200  9239    1
  5824  9200  9204    1
  5825  3509  3547    1
  5826  3509  3513    1
  5827  5408  5447    1
  5828  5408  5412    1
  5829  6669  6707    1
  5830  6669  6673    1
  5831  8568  8607    1
  5832  8568  8572    1
  5833  2877  2915    1
  5834  2877  2881    1
  5835  9829  9867    1
  5836  9829  9833    2
  5837  6037  6075    1
  5838  6037  6041    1
  5839  7936  7975    1
  5840  7936  7940    1
  5841  9197  9235    1
  5842  9197  9201    2
  5843  5405  5443    1
  5844  5405  5409    1
  5845  8565  8603    1
  5846  8565  8569    2
  5847  2336  2265    1
  5848  2256  2252    1
  5849  7933  7971    1
  5850  7933  7937    2
  5851  1704  1633    1
  5852  2319  2323    1
  5853  1624  1620   ar
  5854  1624  2258   ar
  5855  4864  4793    1
  5856  1072  1001    1
  5857  4784  4780    1
  5858  1687  1691    1
  5859  2259  2249   ar
  5860  2259  4782   ar
  5861   992   988   ar
  5862   992  1626   ar
  5863  4232  4161    1
  5864  4847  4851    1
  5865   440   369    1
  5866  4152  4148   ar
  5867  4152  4786   ar
  5868  2333  2265    1
  5869  7392  7321    1
  5870  1055  1059    1
  5871  1627  1617   ar
  5872  1627  4150   ar
  5873   360   356   ar
  5874   360   994   ar
  5875  3600  3529    1
  5876  7312  7308    1
  5877  4215  4219    1
  5878  4787  4777   ar
  5879  4787  7310   ar
  5880  3520  3516   ar
  5881  3520  4154   ar
  5882  1701  1633    1
  5883  6760  6689    1
  5884   423   427    1
  5885   995   985   ar
  5886   995  3518   ar
  5887  7375  7379    1
  5888  2968  2897    1
  5889  6680  6676   ar
  5890  6680  7314   ar
  5891  4861  4793    1
  5892  9920  9849    1
  5893  3583  3587    1
  5894  4155  4145   ar
  5895  4155  6678   ar
  5896  2888  2884   ar
  5897  2888  3522   ar
  5898  1069  1001    1
  5899  6128  6057    1
  5900   363   353   ar
  5901   363  2886   ar
  5902  9840  9836    1
  5903  6743  6747    1
  5904  7315  7305   ar
  5905  7315  9838   ar
  5906  6048  6044   ar
  5907  6048  6682   ar
  5908  4229  4161    1
  5909  9288  9217    1
  5910  2951  2955    1
  5911  3523  3513   ar
  5912  3523  6046   ar
  5913  9903  9907    1
  5914   437   369    1
  5915  5496  5425    1
  5916  9208  9204   ar
  5917  9208  9842   ar
  5918  7389  7321    1
  5919  6111  6115    1
  5920  6683  6673   ar
  5921  6683  9206   ar
  5922  5416  5412   ar
  5923  5416  6050   ar
  5924  3597  3529    1
  5925  8656  8585    1
  5926  2891  2881   ar
  5927  2891  5414   ar
  5928  9271  9275    1
  5929  9843  9833    1
  5930  8576  8572   ar
  5931  8576  9210   ar
  5932  6757  6689    1
  5933  5479  5483    1
  5934  6051  6041   ar
  5935  6051  8574   ar
  5936  2965  2897    1
  5937  8024  7953    1
  5938  9917  9849    1
  5939  8639  8643    1
  5940  9211  9201    1
  5941  7944  7940   ar
  5942  7944  8578   ar
  5943  6125  6057    1
  5944  2252  2257    2
  5945  5419  5409   ar
  5946  5419  7942   ar
  5947  2265  2321    1
  5948  9285  9217    1
  5949  8007  8011    1
  5950  8579  8569    1
  5951  2313  2327    1
  5952  2323  2327    1
  5953  2323  2329    2
  5954  5493  5425    1
  5955  2233  2254    1
  5956  1620  1625   ar
  5957  1633  1689    1
  5958  8653  8585    1
  5959  4780  4785    2
  5960  7947  7937    1
  5961  1681  1695    1
  5962  4793  4849    1
  5963  1691  1695   ar
  5964  1691  1697   ar
  5965  1601  1622    1
  5966   988   993   ar
  5967  1001  1057    1
  5968  4841  4855    1
  5969  4848  2329    1
  5970  2249  2253   ar
  5971  4851  4855    1
  5972  4851  4857    2
  5973  8021  7953    1
  5974  4761  4782    1
  5975  4148  4153   ar
  5976  1049  1063    1
  5977  4161  4217    1
  5978  1059  1063   ar
  5979  1059  1065   ar
  5980   969   990    1
  5981   356   361   ar
  5982   369   425    1
  5983  7308  7313    2
  5984  4209  4223    1
  5985  4216  1697    1
  5986  1617  1621   ar
  5987  7321  7377    1
  5988  4219  4223   ar
  5989  4219  4225   ar
  5990  4129  4150    1
  5991  3516  3521   ar
  5992   417   431    1
  5993  3529  3585    1
  5994   427   431   ar
  5995   427   433   ar
  5996  7369  7383    1
  5997  7376  4857    1
  5998  4777  4781   ar
  5999  7379  7383    1
  6000  7379  7385    2
  6001   337   358    1
  6002  7289  7310    1
  6003  6676  6681   ar
  6004  3577  3591    1
  6005  3584  1065    1
  6006   985   989   ar
  6007  6689  6745    1
  6008  3587  3591   ar
  6009  3587  3593   ar
  6010  3497  3518    1
  6011  2229  2258    1
  6012  2884  2889   ar
  6013  2897  2953    1
  6014  9836  9841    2
  6015  6737  6751    1
  6016  6744  4225    1
  6017  4145  4149   ar
  6018  9849  9905    1
  6019  6747  6751   ar
  6020  6747  6753   ar
  6021  6657  6678    1
  6022  6044  6049   ar
  6023  2945  2959    1
  6024  2952   433    1
  6025   353   357   ar
  6026  6057  6113    1
  6027  2955  2959   ar
  6028  2955  2961   ar
  6029  9897  9911    1
  6030  9904  7385    1
  6031  7305  7309   ar
  6032  9907  9911    2
  6033  9907  9913    1
  6034  2865  2886    1
  6035  1597  1626    1
  6036  9817  9838    1
  6037  9204  9209   ar
  6038  6105  6119    1
  6039  6112  3593    1
  6040  3513  3517   ar
  6041  9217  9273    1
  6042  6115  6119   ar
  6043  6115  6121   ar
  6044  6025  6046    1
  6045  4757  4786    1
  6046  5412  5417   ar
  6047  1695  4858   ar
  6048  5425  5481    1
  6049  9265  9279    1
  6050  9272  6753    1
  6051  6673  6677   ar
  6052  9275  9279    2
  6053  9275  9281    1
  6054   965   994    1
  6055  9185  9206    1
  6056  8572  8577   ar
  6057  5473  5487    1
  6058  5480  2961    1
  6059  2881  2885   ar
  6060  8585  8641    1
  6061  5483  5487   ar
  6062  5483  5489   ar
  6063  9833  9837    1
  6064  5393  5414    1
  6065  4125  4154    1
  6066  1697  4856   ar
  6067  1063  4226   ar
  6068  8633  8647    1
  6069  8640  6121    1
  6070  6041  6045   ar
  6071  2254  2250    1
  6072  8643  8647    2
  6073  8643  8649    1
  6074   333   362    1
  6075  8553  8574    1
  6076  7285  7314    1
  6077  7940  7945   ar
  6078  4223  7386   ar
  6079  7953  8009    1
  6080  9201  9205    1
  6081  3493  3522    1
  6082  1065  4224   ar
  6083   431  3594   ar
  6084  8001  8015    1
  6085  8008  5489    1
  6086  5409  5413   ar
  6087  1622  1618    1
  6088  8011  8015    2
  6089  8011  8017    1
  6090  7921  7942    1
  6091  6653  6682    1
  6092  4225  7384   ar
  6093  3591  6754   ar
  6094  8569  8573    1
  6095  4782  4778   ar
  6096  2861  2890    1
  6097   433  3592   ar
  6098  9813  9842    1
  6099  6751  9914   ar
  6100   990   986    1
  6101  6021  6050    1
  6102  3593  6752   ar
  6103  2959  6122   ar
  6104  2258  2251   ar
  6105  7937  7941    1
  6106  4150  4146   ar
  6107  9181  9210    1
  6108  6753  9912   ar
  6109  6119  9282   ar
  6110   358   354    1
  6111  7310  7306   ar
  6112  2318  2325    1
  6113  5389  5418    1
  6114  2961  6120   ar
  6115  1626  1619   ar
  6116  3518  3514   ar
  6117  8549  8578    1
  6118  6121  9280   ar
  6119  5487  8650   ar
  6120  4786  4779   ar
  6121  6678  6674   ar
  6122  1686  1693    1
  6123   994   987   ar
  6124  2886  2882   ar
  6125  9838  9834   ar
  6126  4846  4853    1
  6127  7917  7946    1
  6128  5489  8648   ar
  6129  4154  4147   ar
  6130  6046  6042   ar
  6131  1054  1061    1
  6132   362   355    1
  6133  7314  7307   ar
  6134  9206  9202   ar
  6135  4214  4221    1
  6136  3522  3515   ar
  6137  5414  5410   ar
  6138   422   429    1
  6139  7374  7381    1
  6140  6682  6675   ar
  6141  8574  8570   ar
  6142  3582  3589    1
  6143  2890  2883    1
  6144  9842  9835   ar
  6145  6742  6749    1
  6146  2330  2316    1
  6147  2330  2324    1
  6148  6050  6043   ar
  6149  7942  7938   ar
  6150  2950  2957    1
  6151  9902  9909    1
  6152  9210  9203   ar
  6153  6110  6117    1
  6154  1698  1684    1
  6155  1698  1692    1
  6156  2328  2312    1
  6157  2328  2324    1
  6158  2321  2325   ar
  6159  2321  2331   ar
  6160  5418  5411    1
  6161  9270  9277    1
  6162  4858  4844    1
  6163  4858  4852   ar
  6164  8578  8571   ar
  6165  5478  5485    1
  6166  1066  1052    1
  6167  1066  1060    1
  6168  1696  1680    1
  6169  1696  1692    1
  6170  1689  1693   ar
  6171  1689  1699   ar
  6172  8638  8645    1
  6173  4226  4212    1
  6174  4226  4220   ar
  6175  4856  4840    1
  6176  4856  4852   ar
  6177  4849  4853   ar
  6178  4849  4859   ar
  6179  7946  7939    1
  6180   434   420    1
  6181   434   428    1
  6182  1064  1048    1
  6183  1064  1060    1
  6184  1057  1061   ar
  6185  1057  1067   ar
  6186  7386  7372    1
  6187  7386  7380   ar
  6188  8006  8013    1
  6189  3594  3580    1
  6190  3594  3588   ar
  6191  4224  4208    1
  6192  4224  4220   ar
  6193  4217  4221   ar
  6194  4217  4227   ar
  6195   432   416    1
  6196   432   428    1
  6197   425   429   ar
  6198   425   435   ar
  6199  6754  6740    1
  6200  6754  6748   ar
  6201  7384  7368    1
  6202  7384  7380   ar
  6203  7377  7381   ar
  6204  7377  7387   ar
  6205  2325  2332   ar
  6206  2962  2948    1
  6207  2962  2956    1
  6208  3592  3576    1
  6209  3592  3588   ar
  6210  3585  3589   ar
  6211  3585  3595   ar
  6212  9914  9900    1
  6213  9914  9908   ar
  6214  6122  6108    1
  6215  6122  6116   ar
  6216  6752  6736    1
  6217  6752  6748   ar
  6218  6745  6749   ar
  6219  6745  6755   ar
  6220  1693  1700   ar
  6221  2960  2944    1
  6222  2960  2956    1
  6223  2953  2957   ar
  6224  2953  2963   ar
  6225  9282  9268    1
  6226  9282  9276   ar
  6227  9912  9896    1
  6228  9912  9908   ar
  6229  9905  9909   ar
  6230  9905  9915   ar
  6231  4853  4860   ar
  6232  2324  2266    2
  6233  5490  5476    1
  6234  5490  5484    1
  6235  6120  6104    1
  6236  6120  6116   ar
  6237  6113  6117   ar
  6238  6113  6123   ar
  6239  1061  1068   ar
  6240  8650  8636    1
  6241  8650  8644   ar
  6242  9280  9264    1
  6243  9280  9276   ar
  6244  9273  9277   ar
  6245  9273  9283   ar
  6246  4221  4228   ar
  6247  1692  1634    2
  6248  5488  5472    1
  6249  5488  5484    1
  6250  5481  5485   ar
  6251  5481  5491   ar
  6252   429   436   ar
  6253  7381  7388   ar
  6254  4852  4794    1
  6255  8018  8004    1
  6256  8018  8012    1
  6257  8648  8632    1
  6258  8648  8644   ar
  6259  8641  8645   ar
  6260  8641  8651   ar
  6261  3589  3596   ar
  6262  1060  1002    2
  6263  6749  6756   ar
  6264  4220  4162    1
  6265  8016  8000    1
  6266  8016  8012    1
  6267  8009  8013   ar
  6268  8009  8019   ar
  6269  2957  2964   ar
  6270   428   370    2
  6271  9909  9916   ar
  6272  2257  2230    1
  6273  7380  7322    1
  6274  6117  6124   ar
  6275  2314  2331    1
  6276  3588  3530    1
  6277  9277  9284   ar
  6278  1625  1598    1
  6279  1625  2255   ar
  6280  6748  6690    1
  6281  5485  5492   ar
  6282  1682  1699    1
  6283  2956  2898    2
  6284  2242  2281    1
  6285  4785  4758    1
  6286  9908  9850    1
  6287  8645  8652   ar
  6288   993   966    1
  6289   993  1623   ar
  6290  4842  4859    1
  6291  6116  6058    1
  6292  1050  1067    1
  6293  1610  1649    1
  6294  4153  4126    1
  6295  4153  4783   ar
  6296  9276  9218    1
  6297  8013  8020   ar
  6298  2331  2326   ar
  6299   361   334    1
  6300   361   991   ar
  6301  4210  4227    1
  6302  5484  5426    2
  6303  4770  4809    1
  6304  7313  7286    1
  6305  2253  2281    1
  6306  2253  4788   ar
  6307   418   435    1
  6308   978  1017    1
  6309  3521  3494    1
  6310  3521  4151   ar
  6311  7370  7387    1
  6312  8644  8586    1
  6313  1699  1694   ar
  6314  3578  3595    1
  6315  4138  4177    1
  6316  6681  6654    1
  6317  6681  7311   ar
  6318  1621  1649    1
  6319  1621  4156   ar
  6320   346   385    1
  6321  4859  4854   ar
  6322  2889  2862    1
  6323  2889  3519   ar
  6324  6738  6755    1
  6325  8012  7954    2
  6326  7298  7337    1
  6327  9841  9814    1
  6328  4781  4809    1
  6329  4781  7316   ar
  6330  1067  1062   ar
  6331  2946  2963    1
  6332  3506  3545    1
  6333  6049  6022    1
  6334  6049  6679   ar
  6335   989  1017    1
  6336   989  3524   ar
  6337  9898  9915    1
  6338  4227  4222   ar
  6339  6106  6123    1
  6340  6666  6705    1
  6341  9209  9182    1
  6342  9209  9839   ar
  6343  4149  4177    1
  6344  4149  6684   ar
  6345   435   430   ar
  6346  2874  2913    1
  6347  7387  7382   ar
  6348  5417  5390    1
  6349  5417  6047   ar
  6350   357   385    1
  6351   357  2892   ar
  6352  9266  9283    1
  6353  9826  9865    1
  6354  7309  7337    1
  6355  7309  9844   ar
  6356  3595  3590   ar
  6357  5474  5491    1
  6358  6034  6073    1
  6359  8577  8550    1
  6360  8577  9207   ar
  6361  3517  3545    1
  6362  3517  6052   ar
  6363  6755  6750   ar
  6364  8634  8651    1
  6365  9194  9233    1
  6366  6677  6705    1
  6367  6677  9212   ar
  6368  2963  2958   ar
  6369  5402  5441    1
  6370  9915  9910   ar
  6371  7945  7918    1
  6372  7945  8575   ar
  6373  2885  2913    1
  6374  2885  5420   ar
  6375  9837  9865    1
  6376  2250  2260    2
  6377  2250  2246    1
  6378  6123  6118   ar
  6379  8002  8019    1
  6380  8562  8601    1
  6381  6045  6073    1
  6382  6045  8580   ar
  6383  9283  9278   ar
  6384  2332  2315    1
  6385  2332  2322   ar
  6386  9205  9233    1
  6387  1618  1628    2
  6388  1618  1614    1
  6389  5491  5486   ar
  6390  7930  7969    1
  6391  5413  5441    1
  6392  5413  7948   ar
  6393  4778  4788   ar
  6394  4778  4774    1
  6395  8651  8646   ar
  6396  1700  1683    1
  6397  1700  1690   ar
  6398  8573  8601    1
  6399   986   996    2
  6400   986   982    1
  6401  2266  2334    1
  6402  2266  2335    1
  6403  2251  2255   ar
  6404  2251  2247    1
  6405  4860  4843    1
  6406  4860  4850   ar
  6407  4146  4156   ar
  6408  4146  4142    1
  6409  8019  8014   ar
  6410  1068  1051    1
  6411  1068  1058   ar
  6412  7941  7969    1
  6413   354   364    2
  6414   354   350    1
  6415  1634  1702    1
  6416  1634  1703    1
  6417  7306  7316   ar
  6418  7306  7302    1
  6419  1619  1623   ar
  6420  1619  1615    1
  6421  4228  4211    1
  6422  4228  4218   ar
  6423  3514  3524   ar
  6424  3514  3510    1
  6425  4794  4862    1
  6426  4794  4863    1
  6427   436   419    1
  6428   436   426   ar
  6429  4779  4783   ar
  6430  4779  4775    1
  6431  7388  7371    1
  6432  7388  7378   ar
  6433  1002  1070    1
  6434  1002  1071    1
  6435  6674  6684   ar
  6436  6674  6670    1
  6437   987   991   ar
  6438   987   983    1
  6439  3596  3579    1
  6440  3596  3586   ar
  6441  2281  2241    1
  6442  2882  2892   ar
  6443  2882  2878    1
  6444  4162  4230    1
  6445  4162  4231    1
  6446  9834  9844   ar
  6447  9834  9830    1
  6448  4147  4151   ar
  6449  4147  4143    1
  6450  6756  6739    1
  6451  6756  6746   ar
  6452   370   438    1
  6453   370   439    1
  6454  6042  6052   ar
  6455  6042  6038    1
  6456  7322  7390    1
  6457  7322  7391    1
  6458   355   359    2
  6459   355   351    1
  6460  2964  2947    1
  6461  2964  2954   ar
  6462  7307  7311   ar
  6463  7307  7303    1
  6464  1649  1609    1
  6465  9916  9899    1
  6466  9916  9906   ar
  6467  3530  3598    1
  6468  3530  3599    1
  6469  9202  9212   ar
  6470  9202  9198    1
  6471  3515  3519   ar
  6472  3515  3511    1
  6473  6124  6107    1
  6474  6124  6114   ar
  6475  4809  4769    1
  6476  5410  5420   ar
  6477  5410  5406    1
  6478  6690  6758    1
  6479  6690  6759    1
  6480  6675  6679   ar
  6481  6675  6671    1
  6482  1017   977    1
  6483  9284  9267    1
  6484  9284  9274   ar
  6485  2898  2966    1
  6486  2898  2967    1
  6487  8570  8580   ar
  6488  8570  8566    1
  6489  9850  9918    1
  6490  9850  9919    1
  6491  2883  2887    2
  6492  2883  2879    1
  6493  5492  5475    1
  6494  5492  5482   ar
  6495  9835  9839   ar
  6496  9835  9831    1
  6497  4177  4137    1
  6498  6058  6126    1
  6499  6058  6127    1
  6500  6043  6047   ar
  6501  6043  6039    1
  6502  2334  2219    1
  6503   385   345    1
  6504  8652  8635    1
  6505  8652  8642   ar
  6506  7337  7297    1
  6507  7938  7948   ar
  6508  7938  7934    1
  6509  9218  9286    1
  6510  9218  9287    1
  6511  9203  9207   ar
  6512  9203  9199    1
  6513  3545  3505    1
  6514  5426  5494    1
  6515  5426  5495    1
  6516  5411  5415    2
  6517  5411  5407    1
  6518  1702  1587    1
  6519  8020  8003    1
  6520  8020  8010   ar
  6521  6705  6665    1
  6522  2335  2215    1
  6523  8586  8654    1
  6524  8586  8655    1
  6525  2260  2231    1
  6526  2326  2322   ar
  6527  2326  2311    1
  6528  8571  8575   ar
  6529  8571  8567    1
  6530  4862  4747    1
  6531  2913  2873    1
  6532  9865  9825    1
  6533  1070   955    1
  6534  6073  6033    1
  6535  1703  1583    1
  6536  7954  8022    1
  6537  7954  8023    1
  6538  1628  1599    1
  6539  1694  1690   ar
  6540  1694  1679    1
  6541  7939  7943    2
  6542  7939  7935    1
  6543  4230  4115    1
  6544  2284  2246    1
  6545  2284  2219    1
  6546  9233  9193    1
  6547  4863  4743    1
  6548  2255  2282    1
  6549  4788  4759    1
  6550  4854  4850   ar
  6551  4854  4839    1
  6552   438   323    1
  6553  7390  7275    1
  6554  5441  5401    1
  6555  1071   951    1
  6556   996   967    1
  6557  1062  1058   ar
  6558  1062  1047    1
  6559  3598  3483    1
  6560  1652  1614    1
  6561  1652  1587    1
  6562  8601  8561    1
  6563  4231  4111    1
  6564  1623  1650    1
  6565  4156  4127    1
  6566  4222  4218   ar
  6567  4222  4207    1
  6568  2322  2317    1
  6569  6758  6643    1
  6570   439   319    1
  6571   364   335    1
  6572  4812  4774    1
  6573  4812  4747    1
  6574   430   426   ar
  6575   430   415    1
  6576  2288  2247    1
  6577  2288  2215    1
  6578  7391  7271    1
  6579  4783  4810    1
  6580  7316  7287    1
  6581  7382  7378   ar
  6582  7382  7367    1
  6583  2966  2851    1
  6584  1020   982    1
  6585  1020   955    1
  6586  9918  9803    1
  6587  7969  7929    1
  6588  3599  3479    1
  6589   991  1018    1
  6590  3524  3495    1
  6591  3590  3586   ar
  6592  3590  3575    1
  6593  1690  1685    1
  6594  6126  6011    1
  6595  4180  4142    1
  6596  4180  4115    1
  6597  1656  1615    1
  6598  1656  1583    1
  6599  6759  6639    1
  6600  4151  4178    1
  6601  6684  6655    1
  6602  6750  6746   ar
  6603  6750  6735    1
  6604  4850  4845    1
  6605   388   350    1
  6606   388   323    1
  6607  9286  9171    1
  6608  2967  2847    1
  6609   359   386    1
  6610  2892  2863    1
  6611  7340  7302    1
  6612  7340  7275    1
  6613  2958  2954   ar
  6614  2958  2943    1
  6615  4816  4775    1
  6616  4816  4743    1
  6617  9919  9799    1
  6618  1058  1053    1
  6619  7311  7338    1
  6620  9844  9815    1
  6621  9910  9906   ar
  6622  9910  9895    1
  6623  5494  5379    1
  6624  3548  3510    1
  6625  3548  3483    1
  6626  1024   983    1
  6627  1024   951    1
  6628  6127  6007    1
  6629  3519  3546    1
  6630  6052  6023    1
  6631  6118  6114   ar
  6632  6118  6103    1
  6633  4218  4213    1
  6634  8654  8539    1
  6635  6708  6670    1
  6636  6708  6643    1
  6637  4184  4143    1
  6638  4184  4111    1
  6639  9287  9167    1
  6640   426   421    1
  6641  6679  6706    1
  6642  9212  9183    1
  6643  9278  9274   ar
  6644  9278  9263    1
  6645  7378  7373    1
  6646  2916  2878    1
  6647  2916  2851    1
  6648   392   351    1
  6649   392   319    1
  6650  5495  5375    1
  6651  2887  2914    1
  6652  5420  5391    1
  6653  9868  9830    1
  6654  9868  9803    1
  6655  5486  5482   ar
  6656  5486  5471    1
  6657  7344  7303    1
  6658  7344  7271    1
  6659  3586  3581    1
  6660  9839  9866    1
  6661  8022  7907    1
  6662  6076  6038    1
  6663  6076  6011    1
  6664  3552  3511    1
  6665  3552  3479    1
  6666  8655  8535    1
  6667  6047  6074    1
  6668  8580  8551    1
  6669  8646  8642   ar
  6670  8646  8631    1
  6671  6746  6741    1
  6672  9236  9198    1
  6673  9236  9171    1
  6674  6712  6671    1
  6675  6712  6639    1
  6676  2954  2949    1
  6677  9207  9234    1
  6678  9906  9901    1
  6679  5444  5406    1
  6680  5444  5379    1
  6681  2920  2879    1
  6682  2920  2847    1
  6683  8023  7903    1
  6684  5415  5442    1
  6685  7948  7919    1
  6686  8014  8010   ar
  6687  8014  7999    1
  6688  9872  9831    1
  6689  9872  9799    1
  6690  6114  6109    1
  6691  8604  8566    1
  6692  8604  8539    1
  6693  6080  6039    1
  6694  6080  6007    1
  6695  8575  8602    1
  6696  9274  9269    1
  6697  2246  2290    1
  6698  9240  9199    1
  6699  9240  9167    1
  6700  5482  5477    1
  6701  7972  7934    1
  6702  7972  7907    1
  6703  5448  5407    1
  6704  5448  5375    1
  6705  7943  7970    1
  6706  8642  8637    1
  6707  1614  1658    1
  6708  8608  8567    1
  6709  8608  8535    1
  6710  4774  4818    1
  6711  2247  2285    1
  6712  8010  8005    1
  6713   982  1026    1
  6714  7976  7935    1
  6715  7976  7903    1
  6716  4142  4186    1
  6717  1615  1653    1
  6718   350   394    1
  6719  7302  7346    1
  6720  4775  4813    1
  6721  3510  3554    1
  6722   983  1021    1
  6723  6670  6714    1
  6724  4143  4181    1
  6725  2878  2922    1
  6726  9830  9874    1
  6727   351   389    1
  6728  7303  7341    1
  6729  6038  6082    1
  6730  3511  3549    1
  6731  9198  9242    1
  6732  6671  6709    1
  6733  5406  5450    1
  6734  2879  2917    1
  6735  9831  9869    1
  6736  8566  8610    1
  6737  6039  6077    1
  6738  9199  9237    1
  6739  7934  7978    1
  6740  5407  5445    1
  6741  8567  8605    1
  6742  7935  7973    1
  6743  2282  2243    1
  6744  2282  2244    1
  6745  2219  2308    1
  6746  2219  2292    1
  6747  2219  2294    1
  6748  1650  1611    1
  6749  1650  1612    1
  6750  1587  1676    1
  6751  1587  1660    1
  6752  1587  1662    1
  6753  4810  4771    1
  6754  4810  4772    1
  6755  2215  2297    1
  6756  2215  2295    1
  6757  1018   979    1
  6758  1018   980    1
  6759  4747  4836    1
  6760  4747  4820    1
  6761  4747  4822    1
  6762   955  1044    1
  6763   955  1028    1
  6764   955  1030    1
  6765  4178  4139    1
  6766  4178  4140    1
  6767  1583  1665    1
  6768  1583  1663    1
  6769   386   347    1
  6770   386   348    1
  6771  4115  4204    1
  6772  4115  4188    1
  6773  4115  4190    1
  6774  7338  7299    1
  6775  7338  7300    1
  6776  4743  4825    1
  6777  4743  4823    1
  6778   323   412    1
  6779   323   396    1
  6780   323   398    1
  6781  3546  3507    1
  6782  3546  3508    1
  6783  7275  7364    1
  6784  7275  7348    1
  6785  7275  7350    1
  6786   951  1033    1
  6787   951  1031    1
  6788  3483  3572    1
  6789  3483  3556    1
  6790  3483  3558    1
  6791  6706  6667    1
  6792  6706  6668    1
  6793  4111  4193    1
  6794  4111  4191    1
  6795  2914  2875    1
  6796  2914  2876    1
  6797  6643  6732    1
  6798  6643  6716    1
  6799  6643  6718    1
  6800  9866  9827    1
  6801  9866  9828    1
  6802   319   401    1
  6803   319   399    1
  6804  2290  2213    1
  6805  7271  7353    1
  6806  7271  7351    1
  6807  2851  2940    1
  6808  2851  2924    1
  6809  2851  2926    1
  6810  6074  6035    1
  6811  6074  6036    1
  6812  9803  9892    1
  6813  9803  9876    1
  6814  9803  9878    1
  6815  3479  3561    1
  6816  3479  3559    1
  6817  6011  6100    1
  6818  6011  6084    1
  6819  6011  6086    1
  6820  9234  9195    1
  6821  9234  9196    1
  6822  1658  1581    1
  6823  6639  6721    1
  6824  6639  6719    1
  6825  5442  5403    1
  6826  5442  5404    1
  6827  9171  9260    1
  6828  9171  9244    1
  6829  9171  9246    1
  6830  2847  2929    1
  6831  2847  2927    1
  6832  4818  4741    1
  6833  9799  9881    1
  6834  9799  9879    1
  6835  5379  5468    1
  6836  5379  5452    1
  6837  5379  5454    1
  6838  8602  8563    1
  6839  8602  8564    1
  6840  1026   949    1
  6841  6007  6089    1
  6842  6007  6087    1
  6843  2285  2218    1
  6844  8539  8628    1
  6845  8539  8612    1
  6846  8539  8614    1
  6847  4186  4109    1
  6848  9167  9249    1
  6849  9167  9247    1
  6850  7970  7931    1
  6851  7970  7932    1
  6852   394   317    1
  6853  2239  2280    1
  6854  5375  5457    1
  6855  5375  5455    1
  6856  7346  7269    1
  6857  1653  1586    1
  6858  7907  7996    1
  6859  7907  7980    1
  6860  7907  7982    1
  6861  3554  3477    1
  6862  8535  8617    1
  6863  8535  8615    1
  6864  4813  4746    1
  6865  1607  1648    1
  6866  6714  6637    1
  6867  1021   954    1
  6868  2922  2845    1
  6869  4767  4808    1
  6870  7903  7985    1
  6871  7903  7983    1
  6872  9874  9797    1
  6873  4181  4114    1
  6874   975  1016    1
  6875  6082  6005    1
  6876   389   322    1
  6877  7341  7274    1
  6878  4135  4176    1
  6879  9242  9165    1
  6880  3549  3482    1
  6881   343   384    1
  6882  5450  5373    1
  6883  7295  7336    1
  6884  6709  6642    1
  6885  3503  3544    1
  6886  8610  8533    1
  6887  2917  2850    1
  6888  9869  9802    1
  6889  6663  6704    1
  6890  6077  6010    1
  6891  2308  2238    1
  6892  2871  2912    1
  6893  7978  7901    1
  6894  9823  9864    1
  6895  9237  9170    1
  6896  6031  6072    1
  6897  5445  5378    1
  6898  1676  1606    1
  6899  9191  9232    1
  6900  2292  2213    1
  6901  8605  8538    1
  6902  4836  4766    1
  6903  5399  5440    1
  6904  1044   974    1
  6905  8559  8600    1
  6906  1660  1581    1
  6907  7973  7906    1
  6908  4204  4134    1
  6909   412   342    1
  6910  4820  4741    1
  6911  7364  7294    1
  6912  7927  7968    1
  6913  1028   949    1
  6914  3572  3502    1
  6915  2297  2218    1
  6916  4188  4109    1
  6917  6732  6662    1
  6918   396   317    1
  6919  2940  2870    1
  6920  7348  7269    1
  6921  1665  1586    1
  6922  9892  9822    1
  6923  3556  3477    1
  6924  6100  6030    1
  6925  4825  4746    1
  6926  2190  2184    1
  6927  6716  6637    1
  6928  1033   954    1
  6929  9260  9190    1
  6930  2924  2845    1
  6931  5468  5398    1
  6932  9876  9797    1
  6933  4193  4114    1
  6934  1558  1552    1
  6935  2192  2184    1
  6936  6084  6005    1
  6937   401   322    1
  6938  8628  8558    1
  6939  7353  7274    1
  6940  4718  4712    1
  6941  9244  9165    1
  6942  3561  3482    1
  6943   926   920    1
  6944  1560  1552    1
  6945  5452  5373    1
  6946  7996  7926    1
  6947  6721  6642    1
  6948  4086  4080    1
  6949  4720  4712    1
  6950  8612  8533    1
  6951  2929  2850    1
  6952   294   288    1
  6953  9881  9802    1
  6954  7246  7240    1
  6955   928   920    1
  6956  6089  6010    1
  6957  2240  2280    1
  6958  3454  3448    1
  6959  2203  2212    2
  6960  4088  4080    1
  6961  7980  7901    1
  6962  9249  9170    1
  6963  2280  2275    1
  6964  6614  6608    1
  6965   296   288    1
  6966  7248  7240    1
  6967  5457  5378    1
  6968  1608  1648    1
  6969  2822  2816    1
  6970  1571  1580    2
  6971  9774  9768    1
  6972  3456  3448    1
  6973  2294  2213    1
  6974  2209  2200    1
  6975  8617  8538    1
  6976  4768  4808    1
  6977  1648  1643    1
  6978  5982  5976    1
  6979  4731  4740    2
  6980  6616  6608    1
  6981   976  1016    1
  6982   939   948    2
  6983  4808  4803    1
  6984  9142  9136    1
  6985  2824  2816    1
  6986  1662  1581    1
  6987  1577  1568    1
  6988  9776  9768    1
  6989  7985  7906    1
  6990  4136  4176    1
  6991  1016  1011    1
  6992  5350  5344    1
  6993  4099  4108    2
  6994  5984  5976    1
  6995  4822  4741    1
  6996   344   384    1
  6997  4737  4728    1
  6998  2295  2218    1
  6999  7296  7336    1
  7000   307   316    2
  7001  4176  4171    1
  7002  8510  8504    1
  7003  1030   949    1
  7004  7259  7268    2
  7005   945   936    1
  7006  9144  9136    1
  7007  3504  3544    1
  7008   384   379    1
  7009  3467  3476    2
  7010  7336  7331    1
  7011  5352  5344    1
  7012  4190  4109    1
  7013  4105  4096    1
  7014  1663  1586    1
  7015  6664  6704    1
  7016  3544  3539    1
  7017  7878  7872    1
  7018   398   317    1
  7019  6627  6636    2
  7020   313   304    1
  7021  8512  8504    1
  7022  7350  7269    1
  7023  2872  2912    1
  7024  7265  7256    1
  7025  4823  4746    1
  7026  9824  9864    1
  7027  2835  2844    2
  7028  6704  6699    1
  7029  3558  3477    1
  7030  9787  9796    2
  7031  3473  3464    1
  7032  1031   954    1
  7033  6032  6072    1
  7034  2912  2907    1
  7035  5995  6004    2
  7036  9864  9859    1
  7037  7880  7872    1
  7038  6718  6637    1
  7039  6633  6624    1
  7040  4191  4114    1
  7041  9192  9232    1
  7042  6072  6067    1
  7043  2926  2845    1
  7044  9155  9164    2
  7045  2841  2832    1
  7046   399   322    1
  7047  9878  9797    1
  7048  2223  2274    1
  7049  5400  5440    1
  7050  9793  9784    1
  7051  7351  7274    1
  7052  5363  5372    2
  7053  9232  9227    1
  7054  6086  6005    1
  7055  6001  5992    1
  7056  3559  3482    1
  7057  8560  8600    1
  7058  5440  5435    1
  7059  8523  8532    2
  7060  9246  9165    1
  7061  1591  1642    1
  7062  9161  9152    1
  7063  6719  6642    1
  7064  2187  2181    1
  7065  8600  8595    1
  7066  5454  5373    1
  7067  5369  5360    1
  7068  2927  2850    1
  7069  4751  4802    1
  7070  7928  7968    1
  7071  9879  9802    1
  7072  2184  2195    1
  7073  2184  2179    1
  7074  7891  7900    2
  7075  8614  8533    1
  7076   959  1010    1
  7077  8529  8520    1
  7078  6087  6010    1
  7079  1555  1549    1
  7080  7968  7963    1
  7081  2225  2277    1
  7082  4119  4170    1
  7083  9247  9170    1
  7084  1552  1563    1
  7085  1552  1547    1
  7086  4715  4709    1
  7087  2221  2272    1
  7088  7982  7901    1
  7089   327   378    1
  7090  7897  7888    1
  7091  5455  5378    1
  7092   923   917    1
  7093  7279  7330    1
  7094  4712  4723    1
  7095  4712  4707    1
  7096  1593  1645    1
  7097  3487  3538    1
  7098  8615  8538    1
  7099   920   931    1
  7100   920   915    1
  7101  4083  4077    1
  7102  4753  4805    1
  7103  1589  1640    1
  7104   291   285    1
  7105  6647  6698    1
  7106  4080  4091    1
  7107  4080  4075    1
  7108  7243  7237    1
  7109   961  1013    1
  7110  4749  4800    1
  7111  2855  2906    1
  7112  7983  7906    1
  7113   288   299    1
  7114   288   283    1
  7115  3451  3445    1
  7116  9807  9858    1
  7117  7240  7251    1
  7118  7240  7235    1
  7119  4121  4173    1
  7120   957  1008    1
  7121  6015  6066    1
  7122  3448  3459    1
  7123  3448  3443    1
  7124  6611  6605    1
  7125   329   381    1
  7126  7281  7333    1
  7127  4117  4168    1
  7128  2819  2813    1
  7129  9175  9226    1
  7130  6608  6619    1
  7131  6608  6603    1
  7132  9771  9765    1
  7133  3489  3541    1
  7134   325   376    1
  7135  7277  7328    1
  7136  5383  5434    1
  7137  2816  2827    1
  7138  2816  2811    1
  7139  5979  5973    1
  7140  9768  9779    1
  7141  9768  9763    1
  7142  6649  6701    1
  7143  3485  3536    1
  7144  8543  8594    1
  7145  2213  2304    1
  7146  2213  2306    1
  7147  5976  5987    1
  7148  5976  5971    1
  7149  9139  9133    1
  7150  2857  2909    1
  7151  9809  9861    1
  7152  6645  6696    1
  7153  5347  5341    1
  7154  9136  9147    1
  7155  9136  9131    1
  7156  6017  6069    1
  7157  2853  2904    1
  7158  9805  9856    1
  7159  7911  7962    1
  7160  1581  1672    1
  7161  1581  1674    1
  7162  5344  5355    1
  7163  5344  5339    1
  7164  8507  8501    1
  7165  9177  9229    1
  7166  6013  6064    1
  7167  4741  4832    1
  7168  4741  4834    1
  7169  8504  8515    1
  7170  8504  8499    1
  7171  5385  5437    1
  7172  9173  9224    1
  7173   949  1040    1
  7174   949  1042    1
  7175  7875  7869    1
  7176  8545  8597    1
  7177  5381  5432    1
  7178  2218  2301    1
  7179  2218  2299    1
  7180  2218  2467    1
  7181  4109  4200    1
  7182  4109  4202    1
  7183  7872  7883    1
  7184  7872  7867    1
  7185  8541  8592    1
  7186   317   408    1
  7187   317   410    1
  7188  7269  7360    1
  7189  7269  7362    1
  7190  7913  7965    1
  7191  1586  1669    1
  7192  1586  1667    1
  7193  1586  1835    1
  7194  3477  3568    1
  7195  3477  3570    1
  7196  7909  7960    1
  7197  4746  4829    1
  7198  4746  4827    1
  7199  4746  4995    1
  7200  6637  6728    1
  7201  6637  6730    1
  7202   954  1037    1
  7203   954  1035    1
  7204   954  1203    1
  7205  2845  2936    1
  7206  2845  2938    1
  7207  9797  9888    1
  7208  9797  9890    1
  7209  4114  4197    1
  7210  4114  4195    1
  7211  4114  4363    1
  7212  6005  6096    1
  7213  6005  6098    1
  7214   322   405    1
  7215   322   403    1
  7216   322   571    1
  7217  7274  7357    1
  7218  7274  7355    1
  7219  7274  7523    1
  7220  9165  9256    1
  7221  9165  9258    1
  7222  3482  3565    1
  7223  3482  3563    1
  7224  3482  3731    1
  7225  5373  5464    1
  7226  5373  5466    1
  7227  2198  2212    1
  7228  2198  2211    1
  7229  6642  6725    1
  7230  6642  6723    1
  7231  6642  6891    1
  7232  8533  8624    1
  7233  8533  8626    1
  7234  2850  2933    1
  7235  2850  2931    1
  7236  2850  3099    1
  7237  9802  9885    1
  7238  9802  9883    1
  7239  9802 10051    1
  7240  1566  1580    1
  7241  1566  1579    1
  7242  6010  6093    1
  7243  6010  6091    1
  7244  6010  6259    1
  7245  7901  7992    1
  7246  7901  7994    1
  7247  4726  4740    1
  7248  4726  4739    1
  7249  9170  9253    1
  7250  9170  9251    1
  7251  9170  9419    1
  7252   934   948    1
  7253   934   947    1
  7254  5378  5461    1
  7255  5378  5459    1
  7256  5378  5627    1
  7257  4094  4108    1
  7258  4094  4107    1
  7259  2212  2200    1
  7260  2212  2204    2
  7261  8538  8621    1
  7262  8538  8619    1
  7263  8538  8787    1
  7264   302   316    1
  7265   302   315    1
  7266  2201  2211    2
  7267  7254  7268    1
  7268  7254  7267    1
  7269  2274  2422    1
  7270  2200  2210    1
  7271  2200  2206    1
  7272  2275  4802   ar
  7273  2275  2421   ar
  7274  3462  3476    1
  7275  3462  3475    1
  7276  1580  1568    1
  7277  1580  1572    2
  7278  7906  7989    1
  7279  7906  7987    1
  7280  7906  8155    1
  7281  1569  1579    2
  7282  6622  6636    1
  7283  6622  6635    1
  7284  1642  1790    1
  7285  1568  1578    1
  7286  1568  1574    1
  7287  1643  4170   ar
  7288  1643  1789   ar
  7289  4740  4728    1
  7290  4740  4732    2
  7291  2830  2844    1
  7292  2830  2843    1
  7293  4729  4739    2
  7294  9782  9796    1
  7295  9782  9795    1
  7296  4802  4950   ar
  7297   948   936    1
  7298   948   940    2
  7299  4728  4738    1
  7300  4728  4734    1
  7301   937   947    2
  7302  4803  7330   ar
  7303  4803  4949   ar
  7304  5990  6004    1
  7305  5990  6003    1
  7306  1010  1158    1
  7307  2181  2179    1
  7308  2181  2182    2
  7309   936   946    1
  7310   936   942    1
  7311  1011  3538   ar
  7312  1011  1157   ar
  7313  4108  4096    1
  7314  4108  4100    2
  7315  2304  2428    1
  7316  4097  4107    2
  7317  9150  9164    1
  7318  9150  9163    1
  7319  4170  4318   ar
  7320   316   304    1
  7321   316   308    2
  7322  4096  4106    1
  7323  4096  4102    1
  7324   305   315    2
  7325  4171  6698   ar
  7326  4171  4317   ar
  7327  7268  7256    1
  7328  7268  7260    2
  7329  2272  2420    1
  7330  2277  1640   ar
  7331  2277  2419   ar
  7332  5358  5372    1
  7333  5358  5371    1
  7334   378   526    1
  7335  7257  7267    2
  7336  1549  1547    1
  7337  1549  1550    2
  7338   304   314    1
  7339   304   310    1
  7340  7330  7478   ar
  7341   379  2906   ar
  7342   379   525   ar
  7343  3476  3464    1
  7344  3476  3468    2
  7345  7256  7266    1
  7346  7256  7262    1
  7347  1672  1796    1
  7348  3465  3475    2
  7349  7331  9858   ar
  7350  7331  7477   ar
  7351  8518  8532    1
  7352  8518  8531    1
  7353  3538  3686   ar
  7354  4709  4707    1
  7355  4709  4710    2
  7356  2301  2427    1
  7357  3464  3474    1
  7358  3464  3470    1
  7359  2299  2425    1
  7360  2306  2426    1
  7361  3539  6066   ar
  7362  3539  3685   ar
  7363  6636  6624    1
  7364  6636  6628    2
  7365  1640  1788   ar
  7366  1645  1008   ar
  7367  1645  1787   ar
  7368  4832  4956    1
  7369  6625  6635    2
  7370   917   915    1
  7371   917   918    2
  7372  6698  6846   ar
  7373  2844  2832    1
  7374  2844  2836    2
  7375  6624  6634    1
  7376  6624  6630    1
  7377  1040  1164    1
  7378  2833  2843    2
  7379  6699  9226   ar
  7380  6699  6845   ar
  7381  9796  9784    1
  7382  9796  9788    2
  7383  4800  4948    1
  7384  4805  4168   ar
  7385  4805  4947   ar
  7386  7886  7900    1
  7387  7886  7899    1
  7388  2906  3054   ar
  7389  9785  9795    2
  7390  4077  4075    1
  7391  4077  4078    2
  7392  1669  1795    1
  7393  2179  2185    1
  7394  2832  2842    1
  7395  2832  2838    1
  7396  1667  1793    1
  7397  9858 10006   ar
  7398  1674  1794    1
  7399  2907  5434   ar
  7400  2907  3053   ar
  7401  6004  5992    1
  7402  6004  5996    2
  7403  9784  9794    1
  7404  9784  9790    1
  7405  1008  1156   ar
  7406  1013   376   ar
  7407  1013  1155   ar
  7408  4200  4324    1
  7409  5993  6003    2
  7410  9859 10005    1
  7411   285   283    1
  7412   285   286    2
  7413  6066  6214   ar
  7414  7237  7235    1
  7415  7237  7238    2
  7416  4829  4955    1
  7417  5992  6002    1
  7418  5992  5998    1
  7419  4827  4953    1
  7420   408   532    1
  7421  4834  4954    1
  7422  6067  8594   ar
  7423  6067  6213   ar
  7424  9164  9152    1
  7425  9164  9156    2
  7426  4168  4316   ar
  7427  4173  3536   ar
  7428  4173  4315   ar
  7429  7360  7484    1
  7430  9153  9163    2
  7431  3445  3443    1
  7432  3445  3446    2
  7433  1037  1163    1
  7434  1547  1553    1
  7435  1035  1161    1
  7436  9226  9374   ar
  7437  1042  1162    1
  7438  5372  5360    1
  7439  5372  5364    2
  7440  9152  9162    1
  7441  9152  9158    1
  7442   376   524   ar
  7443   381   523    1
  7444  3568  3692    1
  7445  5361  5371    2
  7446  9227  9373    1
  7447  7328  7476    1
  7448  7333  6696   ar
  7449  7333  7475   ar
  7450  5434  5582   ar
  7451  6605  6603    1
  7452  6605  6606    2
  7453  4197  4323    1
  7454  4707  4713    1
  7455  5360  5370    1
  7456  5360  5366    1
  7457  4195  4321    1
  7458  4202  4322    1
  7459  5435  7962   ar
  7460  5435  5581   ar
  7461  8532  8520    1
  7462  8532  8524    2
  7463  3536  3684   ar
  7464  3541  2904   ar
  7465  3541  3683   ar
  7466  6728  6852    1
  7467  8521  8531    2
  7468  2813  2811    1
  7469  2813  2814    2
  7470   405   531    1
  7471   915   921    1
  7472   403   529    1
  7473  8594  8742   ar
  7474  9765  9763    1
  7475  9765  9766    2
  7476  7357  7483    1
  7477   410   530    1
  7478  8520  8530    1
  7479  8520  8526    1
  7480  7355  7481    1
  7481  2936  3060    1
  7482  7362  7482    1
  7483  8595  8741    1
  7484  6696  6844   ar
  7485  6701  6064   ar
  7486  6701  6843   ar
  7487  9888 10012    1
  7488  5973  5971    1
  7489  5973  5974    2
  7490  3565  3691    1
  7491  4075  4081    1
  7492  3563  3689    1
  7493  3570  3690    1
  7494  7900  7888    1
  7495  7900  7892    2
  7496  2904  3052   ar
  7497  2909  3051    1
  7498  6096  6220    1
  7499  7889  7899    2
  7500  9856 10004    1
  7501  9861  9224   ar
  7502  9861 10003   ar
  7503   283   289    1
  7504  7962  8110   ar
  7505  9133  9131    1
  7506  9133  9134    2
  7507  6725  6851    1
  7508  7235  7241    1
  7509  7888  7898    1
  7510  7888  7894    1
  7511  6723  6849    1
  7512  6730  6850    1
  7513  7963  8109    1
  7514  6064  6212   ar
  7515  6069  5432   ar
  7516  6069  6211   ar
  7517  9256  9380    1
  7518  5341  5339    1
  7519  5341  5342    2
  7520  2933  3059    1
  7521  3443  3449    1
  7522  2931  3057    1
  7523  9885 10011    1
  7524  2938  3058    1
  7525  9883 10009    1
  7526  5464  5588    1
  7527  9890 10010    1
  7528  9224  9372   ar
  7529  9229  8592   ar
  7530  9229  9371   ar
  7531  8501  8499    1
  7532  8501  8502    2
  7533  6093  6219    1
  7534  6603  6609    1
  7535  6091  6217    1
  7536  6098  6218    1
  7537  5432  5580   ar
  7538  5437  5579    1
  7539  8624  8748    1
  7540  2811  2817    1
  7541  9253  9379    1
  7542  9763  9769    1
  7543  9251  9377    1
  7544  9258  9378    1
  7545  8592  8740   ar
  7546  8597  7960   ar
  7547  8597  8739   ar
  7548  7869  7867    1
  7549  7869  7870    2
  7550  5461  5587    1
  7551  5971  5977    1
  7552  5459  5585    1
  7553  5466  5586    1
  7554  7992  8116    1
  7555  8621  8747    1
  7556  9131  9137    1
  7557  8619  8745    1
  7558  8626  8746    1
  7559  7960  8108   ar
  7560  7965  8107    1
  7561  5339  5345    1
  7562  7989  8115    1
  7563  8499  8505    1
  7564  7987  8113    1
  7565  7994  8114    1
  7566  2211  2202    2
  7567  2211  2199    1
  7568  7867  7873    1
  7569  1579  1570    2
  7570  1579  1567    1
  7571  4739  4730    2
  7572  4739  4727    1
  7573   947   938    2
  7574   947   935    1
  7575  4107  4098    2
  7576  4107  4095    1
  7577   315   306    2
  7578   315   303    1
  7579  7267  7258    2
  7580  7267  7255    1
  7581  3475  3466    2
  7582  3475  3463    1
  7583  6635  6626    2
  7584  6635  6623    1
  7585  2843  2834    2
  7586  2843  2831    1
  7587  9795  9786    2
  7588  9795  9783    1
  7589  6003  5994    2
  7590  6003  5991    1
  7591  9163  9154    2
  7592  9163  9151    1
  7593  5371  5362    2
  7594  5371  5359    1
  7595  8531  8522    2
  7596  8531  8519    1
  7597  7899  7890    2
  7598  7899  7887    1
  7599  2385  2468    1
  7600  2422  2428    2
  7601  2422  2434    1
  7602  2421  2427    1
  7603  2421  2431   ar
  7604  1753  1836    1
  7605  2468  2375    1
  7606  2428  2460    1
  7607  4913  4996    1
  7608  1790  1796    2
  7609  1790  1802    1
  7610  2427  2461    1
  7611  1789  1795    1
  7612  1789  1799   ar
  7613  1121  1204    1
  7614  1836  1743    1
  7615  1796  1828    1
  7616  4950  4956    1
  7617  4950  4962   ar
  7618  4949  4955    1
  7619  4949  4959   ar
  7620  4281  4364    1
  7621  4996  4903    1
  7622  1158  1164    2
  7623  1158  1170    1
  7624  4956  4988    1
  7625  2425  2419    1
  7626  2425  2463    1
  7627  1795  1829    1
  7628  1157  1163    1
  7629  1157  1167   ar
  7630   489   572    1
  7631  2426  2420    2
  7632  2426  2458    1
  7633  1204  1111    1
  7634  1164  1196    1
  7635  7441  7524    1
  7636  2182  2188    1
  7637  2182  2180    1
  7638  2419  2429   ar
  7639  4318  4324    1
  7640  4318  4330   ar
  7641  4955  4989    1
  7642  4317  4323    1
  7643  4317  4327   ar
  7644  3649  3732    1
  7645  4364  4271    1
  7646   526   532    2
  7647   526   538    1
  7648  2420  2436    1
  7649  4324  4356    1
  7650  1793  1787    1
  7651  1793  1831    1
  7652  7478  7484    1
  7653  7478  7490   ar
  7654  1163  1197    1
  7655   525   531    1
  7656   525   535   ar
  7657  1794  1788    1
  7658  1794  1826    1
  7659  2467  2386    1
  7660   572   479    1
  7661   532   564    1
  7662  7477  7483    1
  7663  7477  7487   ar
  7664  6809  6892    1
  7665  1550  1556    1
  7666  1550  1548    1
  7667  1787  1797   ar
  7668  7524  7431    1
  7669  3686  3692    1
  7670  3686  3698   ar
  7671  7484  7516    1
  7672  4953  4947    1
  7673  4953  4991    1
  7674  4323  4357    1
  7675  3685  3691    1
  7676  3685  3695   ar
  7677  3017  3100    1
  7678  4954  4948    2
  7679  4954  4986    1
  7680  3732  3639    1
  7681  1788  1804   ar
  7682  3692  3724    1
  7683  9969 10052    1
  7684  4710  4716    1
  7685  4710  4708    1
  7686  4947  4957   ar
  7687  1161  1155    1
  7688  1161  1199    1
  7689  6846  6852    1
  7690  6846  6858   ar
  7691   531   565    1
  7692  7483  7517    1
  7693  1162  1156    1
  7694  1162  1194    1
  7695  1835  1754    1
  7696  6845  6851    1
  7697  6845  6855   ar
  7698  6177  6260    1
  7699   918   924    1
  7700   918   916    1
  7701  1155  1165   ar
  7702  6892  6799    1
  7703  3054  3060    1
  7704  3054  3066   ar
  7705  4948  4964    1
  7706  6852  6884    1
  7707  4321  4315    1
  7708  4321  4359    1
  7709 10006 10012    1
  7710 10006 10018   ar
  7711  3691  3725    1
  7712  3053  3059    1
  7713  3053  3063   ar
  7714  4322  4316    1
  7715  4322  4354    1
  7716  4995  4914    1
  7717  3100  3007    1
  7718  1156  1172   ar
  7719  3060  3092    1
  7720 10005 10011    2
  7721 10005 10015    1
  7722  9337  9420    1
  7723  4078  4084    1
  7724  4078  4076    1
  7725  4315  4325   ar
  7726   529   523    2
  7727   529   567    1
  7728 10052  9959    1
  7729  6214  6220    1
  7730  6214  6226   ar
  7731 10012 10044    1
  7732  7481  7475    1
  7733  7481  7519    1
  7734  6851  6885    1
  7735   530   524    1
  7736   530   562    1
  7737  1203  1122    1
  7738  6213  6219    1
  7739  6213  6223   ar
  7740  5545  5628    1
  7741  7482  7476    2
  7742  7482  7514    1
  7743   286   292    1
  7744   286   284    1
  7745   523   533    1
  7746  6260  6167    1
  7747  4316  4332   ar
  7748  6220  6252    1
  7749  7238  7244    1
  7750  7238  7236    1
  7751  7475  7485   ar
  7752  3689  3683    1
  7753  3689  3727    1
  7754  9374  9380    1
  7755  9374  9386   ar
  7756  3059  3093    1
  7757 10011 10045    1
  7758  3690  3684    1
  7759  3690  3722    1
  7760  4363  4282    1
  7761   524   540   ar
  7762  9373  9379    2
  7763  9373  9383    1
  7764  8705  8788    1
  7765  2185  2196    1
  7766  2185  2180    1
  7767  3446  3452    1
  7768  3446  3444    1
  7769  3683  3693   ar
  7770  9420  9327    1
  7771  5582  5588    1
  7772  5582  5594   ar
  7773  7476  7492    1
  7774  9380  9412    1
  7775  6849  6843    1
  7776  6849  6887    1
  7777  6219  6253    1
  7778   571   490    1
  7779  5581  5587    1
  7780  5581  5591   ar
  7781  6850  6844    1
  7782  6850  6882    1
  7783  7523  7442    1
  7784  5628  5535    1
  7785  3684  3700   ar
  7786  5588  5620    1
  7787  6606  6612    1
  7788  6606  6604    1
  7789  6843  6853   ar
  7790  3057  3051    2
  7791  3057  3095    1
  7792  8742  8748    1
  7793  8742  8754   ar
  7794 10009 10003    1
  7795 10009 10047    1
  7796  9379  9413    1
  7797  3058  3052    1
  7798  3058  3090    1
  7799  3731  3650    1
  7800  8741  8747    2
  7801  8741  8751    1
  7802  8073  8156    1
  7803 10010 10004    2
  7804 10010 10042    1
  7805  1553  1564    1
  7806  1553  1548    1
  7807  2814  2820    1
  7808  2814  2812    1
  7809  3051  3061    1
  7810  8788  8695    1
  7811  6844  6860   ar
  7812  8748  8780    1
  7813  9766  9772    1
  7814  9766  9764    1
  7815 10003 10013   ar
  7816  6217  6211    1
  7817  6217  6255    1
  7818  5587  5621    1
  7819  6218  6212    1
  7820  6218  6250    1
  7821  6891  6810    1
  7822  3052  3068   ar
  7823  4713  4724    1
  7824  4713  4708    1
  7825  5974  5980    1
  7826  5974  5972    1
  7827  6211  6221   ar
  7828  8110  8116    1
  7829  8110  8122   ar
  7830 10004 10020    1
  7831  9377  9371    1
  7832  9377  9415    1
  7833  8747  8781    1
  7834  3099  3018    1
  7835  8109  8115    2
  7836  8109  8119    1
  7837  9378  9372    1
  7838  9378  9410    1
  7839 10051  9970    1
  7840   921   932    1
  7841   921   916    1
  7842  8156  8063    1
  7843  6212  6228   ar
  7844  8116  8148    1
  7845  9134  9140    1
  7846  9134  9132    1
  7847  9371  9381   ar
  7848  5585  5579    2
  7849  5585  5623    1
  7850  5586  5580    1
  7851  5586  5618    1
  7852  6259  6178    1
  7853  4081  4092    1
  7854  4081  4076    1
  7855  5342  5348    1
  7856  5342  5340    1
  7857  5579  5589    1
  7858  9372  9388   ar
  7859  8745  8739    1
  7860  8745  8783    1
  7861  8115  8149    1
  7862  8746  8740    1
  7863  8746  8778    1
  7864  9419  9338    1
  7865   289   300    1
  7866   289   284    1
  7867  5580  5596   ar
  7868  7241  7252    1
  7869  7241  7236    1
  7870  8502  8508    1
  7871  8502  8500    1
  7872  8739  8749   ar
  7873  5627  5546    1
  7874  3449  3460    1
  7875  3449  3444    1
  7876  8740  8756   ar
  7877  8113  8107    2
  7878  8113  8151    1
  7879  8114  8108    1
  7880  8114  8146    1
  7881  8787  8706    1
  7882  6609  6620    1
  7883  6609  6604    1
  7884  7870  7876    1
  7885  7870  7868    1
  7886  8107  8117    1
  7887  2817  2828    1
  7888  2817  2812    1
  7889  8108  8124   ar
  7890  9769  9780    1
  7891  9769  9764    1
  7892  8155  8074    1
  7893  5977  5988    1
  7894  5977  5972    1
  7895  9137  9148    1
  7896  9137  9132    1
  7897  2205  2199    1
  7898  5345  5356    1
  7899  5345  5340    1
  7900  8505  8516    1
  7901  8505  8500    1
  7902  1573  1567    1
  7903  4733  4727    1
  7904  7873  7884    1
  7905  7873  7868    1
  7906   941   935    1
  7907  4101  4095    1
  7908   309   303    1
  7909  7261  7255    1
  7910  3469  3463    1
  7911  6629  6623    1
  7912  2837  2831    1
  7913  9789  9783    1
  7914  5997  5991    1
  7915  2199  2207    1
  7916  2199  2208    1
  7917  9157  9151    1
  7918  2180  2186    1
  7919  5365  5359    1
  7920  1567  1575    1
  7921  1567  1576    1
  7922  8525  8519    1
  7923  4727  4735    1
  7924  4727  4736    1
  7925  1548  1554    1
  7926   935   943    1
  7927   935   944    1
  7928  4708  4714    1
  7929  7893  7887    1
  7930  4095  4103    1
  7931  4095  4104    1
  7932   916   922    1
  7933  2460  2375    1
  7934   303   311    1
  7935   303   312    1
  7936  7255  7263    1
  7937  7255  7264    1
  7938  4076  4082    1
  7939  3463  3471    1
  7940  3463  3472    1
  7941   284   290    1
  7942  2434  2384    1
  7943  2461  2372    1
  7944  7236  7242    1
  7945  1828  1743    1
  7946  2458  2375    1
  7947  6623  6631    1
  7948  6623  6632    1
  7949  3444  3450    1
  7950  2463  2372    1
  7951  2431  4962   ar
  7952  2431  2382    1
  7953  4988  4903    1
  7954  2831  2839    1
  7955  2831  2840    1
  7956  1802  1752    1
  7957  9783  9791    1
  7958  9783  9792    1
  7959  1829  1740    1
  7960  6604  6610    1
  7961  1196  1111    1
  7962  1826  1743    1
  7963  5991  5999    1
  7964  5991  6000    1
  7965  2812  2818    1
  7966  1831  1740    1
  7967  4962  4912    1
  7968  4989  4900    1
  7969  9764  9770    1
  7970  1799  4330   ar
  7971  1799  1750    1
  7972  4356  4271    1
  7973  4986  4903    1
  7974  1170  1120    1
  7975  9151  9159    1
  7976  9151  9160    1
  7977  1197  1108    1
  7978  5972  5978    1
  7979  4991  4900    1
  7980   564   479    1
  7981  1194  1111    1
  7982  4959  7490   ar
  7983  4959  4910    1
  7984  7516  7431    1
  7985  5359  5367    1
  7986  5359  5368    1
  7987  1199  1108    1
  7988  4330  4280    1
  7989  4357  4268    1
  7990  9132  9138    1
  7991  1167  3698   ar
  7992  1167  1118    1
  7993  3724  3639    1
  7994  4354  4271    1
  7995  2429  1804   ar
  7996  2429  2380    1
  7997   538   488    1
  7998  8519  8527    1
  7999  8519  8528    1
  8000   565   476    1
  8001  5340  5346    1
  8002  4359  4268    1
  8003  7490  7440    1
  8004  7517  7428    1
  8005   562   479    1
  8006  4327  6858   ar
  8007  4327  4278    1
  8008  2436  2437    1
  8009  6884  6799    1
  8010  7514  7431    1
  8011   567   476    1
  8012  3698  3648    1
  8013  3725  3636    1
  8014  8500  8506    1
  8015  7519  7428    1
  8016   535  3066   ar
  8017   535   486    1
  8018  3092  3007    1
  8019  3722  3639    1
  8020  1797  1172   ar
  8021  1797  1748    1
  8022  7487 10018   ar
  8023  7487  7438    1
  8024 10044  9959    1
  8025  7887  7895    1
  8026  7887  7896    1
  8027  3727  3636    1
  8028  6858  6808    1
  8029  6885  6796    1
  8030  3695  6226   ar
  8031  3695  3646    1
  8032  1804  1805    1
  8033  6252  6167    1
  8034  6882  6799    1
  8035  4957  4332   ar
  8036  4957  4908    1
  8037  3066  3016    1
  8038  3093  3004    1
  8039  7868  7874    1
  8040  6887  6796    1
  8041 10018  9968    1
  8042 10045  9956    1
  8043  3090  3007    1
  8044  1165   540   ar
  8045  1165  1116    1
  8046  6855  9386   ar
  8047  6855  6806    1
  8048  4964  4965    1
  8049  9412  9327    1
  8050 10042  9959    1
  8051  3095  3004    1
  8052  6226  6176    1
  8053  6253  6164    1
  8054 10047  9956    1
  8055  3063  5594   ar
  8056  3063  3014    1
  8057  1172  1173    1
  8058  5620  5535    1
  8059  6250  6167    1
  8060  4325  3700   ar
  8061  4325  4276    1
  8062 10015  9966    1
  8063  6255  6164    1
  8064  9386  9336    1
  8065  9413  9324    1
  8066   533   484    1
  8067  6223  8754   ar
  8068  6223  6174    1
  8069  4332  4333    1
  8070  8780  8695    1
  8071  9410  9327    1
  8072  7485  6860   ar
  8073  7485  7436    1
  8074  5594  5544    1
  8075  5621  5532    1
  8076  9415  9324    1
  8077   540   541    1
  8078  5618  5535    1
  8079  3693  3068   ar
  8080  3693  3644    1
  8081  9383  9334    1
  8082  7492  7493    1
  8083  5623  5532    1
  8084  8754  8704    1
  8085  8781  8692    1
  8086  5591  8122   ar
  8087  5591  5542    1
  8088  3700  3701    1
  8089  8148  8063    1
  8090  8778  8695    1
  8091  6853  6228   ar
  8092  6853  6804    1
  8093  8783  8692    1
  8094  3061  3012    1
  8095  8751  8702    1
  8096  6860  6861    1
  8097 10013  9388   ar
  8098 10013  9964    1
  8099  8122  8072    1
  8100  8149  8060    1
  8101  3068  3069    1
  8102  8146  8063    1
  8103  6221  5596   ar
  8104  6221  6172    1
  8105 10020 10021    1
  8106  8151  8060    1
  8107  8119  8070    1
  8108  6228  6229    1
  8109  9381  8756   ar
  8110  9381  9332    1
  8111  5589  5540    1
  8112  9388  9389    1
  8113  5596  5597    1
  8114  8749  8124   ar
  8115  8749  8700    1
  8116  8756  8757    1
  8117  8117  8068    1
  8118  2375  2456    1
  8119  2375  2454    1
  8120  2375  2444    1
  8121  8124  8125    1
  8122  1743  1824    1
  8123  1743  1822    1
  8124  1743  1812    1
  8125  4903  4984    1
  8126  4903  4982    1
  8127  4903  4972    1
  8128  1111  1192    1
  8129  1111  1190    1
  8130  1111  1180    1
  8131  2372  2449    1
  8132  2372  2451    1
  8133  2372  2447    1
  8134  4271  4352    1
  8135  4271  4350    1
  8136  4271  4340    1
  8137   479   560    1
  8138   479   558    1
  8139   479   548    1
  8140  7431  7512    1
  8141  7431  7510    1
  8142  7431  7500    1
  8143  1740  1817    1
  8144  1740  1819    1
  8145  1740  1815    1
  8146  3639  3720    1
  8147  3639  3718    1
  8148  3639  3708    1
  8149  4900  4977    1
  8150  4900  4979    1
  8151  4900  4975    1
  8152  6799  6880    1
  8153  6799  6878    1
  8154  6799  6868    1
  8155  1108  1185    1
  8156  1108  1187    1
  8157  1108  1183    1
  8158  3007  3088    1
  8159  3007  3086    1
  8160  3007  3076    1
  8161  9959 10040    1
  8162  9959 10038    1
  8163  9959 10028    1
  8164  4268  4345    1
  8165  4268  4347    1
  8166  4268  4343    1
  8167  6167  6248    1
  8168  6167  6246    1
  8169  6167  6236    1
  8170   476   553    1
  8171   476   555    1
  8172   476   551    1
  8173  7428  7505    1
  8174  7428  7507    1
  8175  7428  7503    1
  8176  9327  9408    1
  8177  9327  9406    1
  8178  9327  9396    1
  8179  3636  3713    1
  8180  3636  3715    1
  8181  3636  3711    1
  8182  5535  5616    1
  8183  5535  5614    1
  8184  5535  5604    1
  8185  6796  6873    1
  8186  6796  6875    1
  8187  6796  6871    1
  8188  8695  8776    1
  8189  8695  8774    1
  8190  8695  8764    1
  8191  3004  3081    1
  8192  3004  3083    1
  8193  3004  3079    1
  8194  9956 10033    1
  8195  9956 10035    1
  8196  9956 10031    1
  8197  6164  6241    1
  8198  6164  6243    1
  8199  6164  6239    1
  8200  8063  8144    1
  8201  8063  8142    1
  8202  8063  8132    1
  8203  9324  9401    1
  8204  9324  9403    1
  8205  9324  9399    1
  8206  5532  5609    1
  8207  5532  5611    1
  8208  5532  5607    1
  8209  8692  8769    1
  8210  8692  8771    1
  8211  8692  8767    1
  8212  2395  2465    1
  8213  8060  8137    1
  8214  8060  8139    1
  8215  8060  8135    1
  8216  2189  2183    1
  8217  1763  1833    1
  8218  1557  1551    1
  8219  2456  2374    1
  8220  4923  4993    1
  8221  4717  4711    1
  8222  2186  2194    1
  8223  2186  2183    1
  8224  2186  2197    1
  8225  1131  1201    1
  8226   925   919    1
  8227  1824  1742    1
  8228  4291  4361    1
  8229  4085  4079    1
  8230  1554  1562    1
  8231  1554  1551    1
  8232  1554  1565    1
  8233   499   569    1
  8234  4984  4902    1
  8235  2191  2183    1
  8236   293   287    1
  8237  7451  7521    1
  8238  7245  7239    1
  8239  4714  4722    1
  8240  4714  4711    1
  8241  4714  4725    1
  8242  1192  1110    1
  8243  3659  3729    1
  8244  3453  3447    1
  8245   922   930    1
  8246   922   919    1
  8247   922   933    1
  8248  2449  2378    1
  8249  4352  4270    1
  8250  1559  1551    1
  8251  6819  6889    1
  8252  2437  2393    1
  8253  6613  6607    1
  8254  4082  4090    1
  8255  4082  4079    1
  8256  4082  4093    1
  8257   560   478    1
  8258  3027  3097    1
  8259  7512  7430    1
  8260  4719  4711    1
  8261  2821  2815    1
  8262   290   298    1
  8263   290   287    1
  8264   290   301    1
  8265  9979 10049    1
  8266  9773  9767    1
  8267  7242  7250    1
  8268  7242  7239    1
  8269  7242  7253    1
  8270  1817  1746    1
  8271  3720  3638    1
  8272   927   919    1
  8273  6187  6257    1
  8274  1805  1761    1
  8275  1805  2394    1
  8276  5981  5975    1
  8277  3450  3458    1
  8278  3450  3447    1
  8279  3450  3461    1
  8280  4977  4906    1
  8281  6880  6798    1
  8282  4087  4079    1
  8283  9347  9417    1
  8284  4965  4921    1
  8285  9141  9135    1
  8286  6610  6618    1
  8287  6610  6607    1
  8288  6610  6621    1
  8289  1185  1114    1
  8290  3088  3006    1
  8291   295   287    1
  8292  5555  5625    1
  8293  1173  1129    1
  8294  1173  1762    1
  8295 10040  9958    1
  8296  7247  7239    1
  8297  5349  5343    1
  8298  2818  2826    1
  8299  2818  2815    1
  8300  2818  2829    1
  8301  9770  9778    1
  8302  9770  9767    1
  8303  9770  9781    1
  8304  4345  4274    1
  8305  6248  6166    1
  8306  3455  3447    1
  8307  8715  8785    1
  8308  4333  4289    1
  8309  4333  4922    1
  8310  8509  8503    1
  8311  5978  5986    1
  8312  5978  5975    1
  8313  5978  5989    1
  8314   553   482    1
  8315  7505  7434    1
  8316   541   497    1
  8317   541  1130    1
  8318  9408  9326    1
  8319  6615  6607    1
  8320  7493  7449    1
  8321  9138  9146    1
  8322  9138  9135    1
  8323  9138  9149    1
  8324  3713  3642    1
  8325  5616  5534    1
  8326  2823  2815    1
  8327  8083  8153    1
  8328  3701  3657    1
  8329  3701  4290    1
  8330  9775  9767    1
  8331  7877  7871    1
  8332  5346  5354    1
  8333  5346  5343    1
  8334  5346  5357    1
  8335  6873  6802    1
  8336  8776  8694    1
  8337  5983  5975    1
  8338  6861  6817    1
  8339  6861  7450    1
  8340  8506  8514    1
  8341  8506  8503    1
  8342  8506  8517    1
  8343  3081  3010    1
  8344  2183  2193    1
  8345 10033  9962    1
  8346  3069  3025    1
  8347  3069  3658    1
  8348  9143  9135    1
  8349 10021  9977    1
  8350  6241  6170    1
  8351  8144  8062    1
  8352  5351  5343    1
  8353  6229  6185    1
  8354  6229  6818    1
  8355  7874  7882    1
  8356  7874  7871    1
  8357  7874  7885    1
  8358  1551  1561    1
  8359  9401  9330    1
  8360  8511  8503    1
  8361  9389  9345    1
  8362  9389  9978    1
  8363  5609  5538    1
  8364  4711  4721    1
  8365  5597  5553    1
  8366  5597  6186    1
  8367   919   929    1
  8368  2454  2374    1
  8369  8769  8698    1
  8370  7879  7871    1
  8371  8757  8713    1
  8372  8757  9346    1
  8373  4079  4089    1
  8374   287   297    1
  8375  1822  1742    1
  8376  8137  8066    1
  8377  7239  7249    1
  8378  2451  2378    1
  8379  8125  8081    1
  8380  8125  8714    1
  8381  3447  3457    1
  8382  4982  4902    1
  8383  1190  1110    1
  8384  6607  6617    1
  8385  2465  2378    1
  8386  1819  1746    1
  8387  2815  2825    1
  8388  4350  4270    1
  8389  9767  9777    1
  8390  4979  4906    1
  8391   558   478    1
  8392  5975  5985    1
  8393  1833  1746    1
  8394  7510  7430    1
  8395  1187  1114    1
  8396  3718  3638    1
  8397  9135  9145    1
  8398  4993  4906    1
  8399  4347  4274    1
  8400  5343  5353    1
  8401  1201  1114    1
  8402  6878  6798    1
  8403   555   482    1
  8404  7507  7434    1
  8405  3086  3006    1
  8406  8503  8513    1
  8407  4361  4274    1
  8408 10038  9958    1
  8409  3715  3642    1
  8410   569   482    1
  8411  6246  6166    1
  8412  7521  7434    1
  8413  6875  6802    1
  8414  7871  7881    1
  8415  3729  3642    1
  8416  9406  9326    1
  8417  3083  3010    1
  8418 10035  9962    1
  8419  5614  5534    1
  8420  6889  6802    1
  8421  6243  6170    1
  8422  3097  3010    1
  8423  8774  8694    1
  8424 10049  9962    1
  8425  9403  9330    1
  8426  6257  6170    1
  8427  5611  5538    1
  8428  8142  8062    1
  8429  9417  9330    1
  8430  8771  8698    1
  8431  5625  5538    1
  8432  2444  2406    1
  8433  8785  8698    1
  8434  8139  8066    1
  8435  1812  1774    1
  8436  8153  8066    1
  8437  4972  4934    1
  8438  1180  1142    1
  8439  2447  2403    1
  8440  4340  4302    1
  8441   548   510    1
  8442  1815  1771    1
  8443  7500  7462    1
  8444  3708  3670    1
  8445  4975  4931    1
  8446  1183  1139    1
  8447  6868  6830    1
  8448  2374  2445    1
  8449  2374  2494    1
  8450  3076  3038    1
  8451  4343  4299    1
  8452 10028  9990    1
  8453   551   507    1
  8454  6236  6198    1
  8455  1742  1813    1
  8456  1742  1862    1
  8457  7503  7459    1
  8458  2378  2441    1
  8459  2378  2491    1
  8460  3711  3667    1
  8461  9396  9358    1
  8462  4902  4973    1
  8463  4902  5022    1
  8464  5604  5566    1
  8465  1110  1181    1
  8466  1110  1230    1
  8467  6871  6827    1
  8468  1746  1809    1
  8469  1746  1859    1
  8470  3079  3035    1
  8471  8764  8726    1
  8472  4270  4341    1
  8473  4270  4390    1
  8474 10031  9987    1
  8475  4906  4969    1
  8476  4906  5019    1
  8477   478   549    1
  8478   478   598    1
  8479  6239  6195    1
  8480  7430  7501    1
  8481  7430  7550    1
  8482  1114  1177    1
  8483  1114  1227    1
  8484  8132  8094    1
  8485  3638  3709    1
  8486  3638  3758    1
  8487  9399  9355    1
  8488  4274  4337    1
  8489  4274  4387    1
  8490  5607  5563    1
  8491  6798  6869    1
  8492  6798  6918    1
  8493   482   545    1
  8494   482   595    1
  8495  7434  7497    1
  8496  7434  7547    1
  8497  3006  3077    1
  8498  3006  3126    1
  8499  8767  8723    1
  8500  9958 10029    1
  8501  9958 10078    1
  8502  3642  3705    1
  8503  3642  3755    1
  8504  6166  6237    1
  8505  6166  6286    1
  8506  6802  6865    1
  8507  6802  6915    1
  8508  8135  8091    1
  8509  9326  9397    1
  8510  9326  9446    1
  8511  3010  3073    1
  8512  3010  3123    1
  8513  9962 10025    1
  8514  9962 10075    1
  8515  5534  5605    1
  8516  5534  5654    1
  8517  6170  6233    1
  8518  6170  6283    1
  8519  8694  8765    1
  8520  8694  8814    1
  8521  9330  9393    1
  8522  9330  9443    1
  8523  5538  5601    1
  8524  5538  5651    1
  8525  8062  8133    1
  8526  8062  8182    1
  8527  2392  2414    1
  8528  8698  8761    1
  8529  8698  8811    1
  8530  1760  1782    1
  8531  8066  8129    1
  8532  8066  8179    1
  8533  2390  2417    1
  8534  4920  4942    1
  8535  1128  1150    1
  8536  1758  1785    1
  8537  4288  4310    1
  8538   496   518    1
  8539  4918  4945    1
  8540  7448  7470    1
  8541  1126  1153    1
  8542  3656  3678    1
  8543  4286  4313    1
  8544  6816  6838    1
  8545   494   521    1
  8546  3024  3046    1
  8547  7446  7473    1
  8548  9976  9998    1
  8549  3654  3681    1
  8550  6184  6206    1
  8551  6814  6841    1
  8552  9344  9366    1
  8553  3022  3049    1
  8554  5552  5574    1
  8555  9974 10001    1
  8556  6182  6209    1
  8557  8712  8734    1
  8558  9342  9369    1
  8559  5550  5577    1
  8560  8080  8102    1
  8561  8710  8737    1
  8562  2406  2445    1
  8563  2406  2410    1
  8564  8078  8105    1
  8565  1774  1813    1
  8566  1774  1778    1
  8567  4934  4973    1
  8568  4934  4938    1
  8569  1142  1181    1
  8570  1142  1146    1
  8571  2403  2441    1
  8572  2403  2407    1
  8573  4302  4341    1
  8574  4302  4306    1
  8575   510   549    1
  8576   510   514    1
  8577  7462  7501    1
  8578  7462  7466    1
  8579  1771  1809    1
  8580  1771  1775    1
  8581  3670  3709    1
  8582  3670  3674    1
  8583  4931  4969    1
  8584  4931  4935    1
  8585  6830  6869    1
  8586  6830  6834    1
  8587  1139  1177    1
  8588  1139  1143    1
  8589  3038  3077    1
  8590  3038  3042    1
  8591  9990 10029    1
  8592  9990  9994    1
  8593  4299  4337    1
  8594  4299  4303    1
  8595  6198  6237    1
  8596  6198  6202    1
  8597   507   545    1
  8598   507   511    1
  8599  7459  7497    1
  8600  7459  7463    1
  8601  9358  9397    1
  8602  9358  9362    1
  8603  3667  3705    1
  8604  3667  3671    1
  8605  5566  5605    1
  8606  5566  5570    1
  8607  6827  6865    1
  8608  6827  6831    1
  8609  8726  8765    1
  8610  8726  8730    1
  8611  3035  3073    1
  8612  3035  3039    1
  8613  9987 10025    1
  8614  9987  9991    2
  8615  6195  6233    1
  8616  6195  6199    1
  8617  8094  8133    1
  8618  8094  8098    1
  8619  9355  9393    1
  8620  9355  9359    2
  8621  5563  5601    1
  8622  5563  5567    1
  8623  8723  8761    1
  8624  8723  8727    2
  8625  2494  2423    1
  8626  2414  2410    1
  8627  8091  8129    1
  8628  8091  8095    2
  8629  1862  1791    1
  8630  2477  2481    1
  8631  1782  1778   ar
  8632  1782  2416   ar
  8633  5022  4951    1
  8634  1230  1159    1
  8635  4942  4938    1
  8636  1845  1849    1
  8637  2417  2407   ar
  8638  2417  4940   ar
  8639  1150  1146   ar
  8640  1150  1784   ar
  8641  4390  4319    1
  8642  5005  5009    1
  8643   598   527    1
  8644  4310  4306   ar
  8645  4310  4944   ar
  8646  2491  2423    1
  8647  7550  7479    1
  8648  1213  1217    1
  8649  1785  1775   ar
  8650  1785  4308   ar
  8651   518   514   ar
  8652   518  1152   ar
  8653  3758  3687    1
  8654  7470  7466    1
  8655  4373  4377    1
  8656  4945  4935   ar
  8657  4945  7468   ar
  8658  3678  3674   ar
  8659  3678  4312   ar
  8660  1859  1791    1
  8661  6918  6847    1
  8662   581   585    1
  8663  1153  1143   ar
  8664  1153  3676   ar
  8665  7533  7537    1
  8666  3126  3055    1
  8667  6838  6834   ar
  8668  6838  7472   ar
  8669  5019  4951    1
  8670 10078 10007    1
  8671  3741  3745    1
  8672  4313  4303   ar
  8673  4313  6836   ar
  8674  3046  3042   ar
  8675  3046  3680   ar
  8676  1227  1159    1
  8677  6286  6215    1
  8678   521   511   ar
  8679   521  3044   ar
  8680  9998  9994    1
  8681  6901  6905    1
  8682  7473  7463   ar
  8683  7473  9996   ar
  8684  6206  6202   ar
  8685  6206  6840   ar
  8686  4387  4319    1
  8687  9446  9375    1
  8688  3109  3113    1
  8689  3681  3671   ar
  8690  3681  6204   ar
  8691 10061 10065    1
  8692   595   527    1
  8693  5654  5583    1
  8694  9366  9362   ar
  8695  9366 10000   ar
  8696  7547  7479    1
  8697  6269  6273    1
  8698  6841  6831   ar
  8699  6841  9364   ar
  8700  5574  5570   ar
  8701  5574  6208   ar
  8702  3755  3687    1
  8703  8814  8743    1
  8704  3049  3039   ar
  8705  3049  5572   ar
  8706  9429  9433    1
  8707 10001  9991    1
  8708  8734  8730   ar
  8709  8734  9368   ar
  8710  6915  6847    1
  8711  5637  5641    1
  8712  6209  6199   ar
  8713  6209  8732   ar
  8714  3123  3055    1
  8715  8182  8111    1
  8716 10075 10007    1
  8717  8797  8801    1
  8718  9369  9359    1
  8719  8102  8098   ar
  8720  8102  8736   ar
  8721  6283  6215    1
  8722  2410  2415    2
  8723  5577  5567   ar
  8724  5577  8100   ar
  8725  2423  2479    1
  8726  9443  9375    1
  8727  8165  8169    1
  8728  8737  8727    1
  8729  2471  2485    1
  8730  2481  2485    1
  8731  2481  2487    2
  8732  5651  5583    1
  8733  2391  2412    1
  8734  1778  1783   ar
  8735  1791  1847    1
  8736  8811  8743    1
  8737  4938  4943    2
  8738  8105  8095    1
  8739  1839  1853    1
  8740  4951  5007    1
  8741  1849  1853   ar
  8742  1849  1855   ar
  8743  1759  1780    1
  8744  1146  1151   ar
  8745  1159  1215    1
  8746  4999  5013    1
  8747  5006  2487    1
  8748  2407  2411   ar
  8749  5009  5013    1
  8750  5009  5015    2
  8751  8179  8111    1
  8752  4919  4940    1
  8753  4306  4311   ar
  8754  1207  1221    1
  8755  4319  4375    1
  8756  1217  1221   ar
  8757  1217  1223   ar
  8758  1127  1148    1
  8759   514   519   ar
  8760   527   583    1
  8761  7466  7471    2
  8762  4367  4381    1
  8763  4374  1855    1
  8764  1775  1779   ar
  8765  7479  7535    1
  8766  4377  4381   ar
  8767  4377  4383   ar
  8768  4287  4308    1
  8769  3674  3679   ar
  8770   575   589    1
  8771  3687  3743    1
  8772   585   589   ar
  8773   585   591   ar
  8774  7527  7541    1
  8775  7534  5015    1
  8776  4935  4939   ar
  8777  7537  7541    1
  8778  7537  7543    2
  8779   495   516    1
  8780  7447  7468    1
  8781  6834  6839   ar
  8782  3735  3749    1
  8783  3742  1223    1
  8784  1143  1147   ar
  8785  6847  6903    1
  8786  3745  3749   ar
  8787  3745  3751   ar
  8788  3655  3676    1
  8789  2387  2416    1
  8790  3042  3047   ar
  8791  3055  3111    1
  8792  9994  9999    2
  8793  6895  6909    1
  8794  6902  4383    1
  8795  4303  4307   ar
  8796 10007 10063    1
  8797  6905  6909   ar
  8798  6905  6911   ar
  8799  6815  6836    1
  8800  6202  6207   ar
  8801  3103  3117    1
  8802  3110   591    1
  8803   511   515   ar
  8804  6215  6271    1
  8805  3113  3117   ar
  8806  3113  3119   ar
  8807 10055 10069    1
  8808 10062  7543    1
  8809  7463  7467   ar
  8810 10065 10069    2
  8811 10065 10071    1
  8812  3023  3044    1
  8813  1755  1784    1
  8814  9975  9996    1
  8815  9362  9367   ar
  8816  6263  6277    1
  8817  6270  3751    1
  8818  3671  3675   ar
  8819  9375  9431    1
  8820  6273  6277   ar
  8821  6273  6279   ar
  8822  6183  6204    1
  8823  4915  4944    1
  8824  5570  5575   ar
  8825  1853  5016   ar
  8826  5583  5639    1
  8827  9423  9437    1
  8828  9430  6911    1
  8829  6831  6835   ar
  8830  9433  9437    2
  8831  9433  9439    1
  8832  1123  1152    1
  8833  9343  9364    1
  8834  8730  8735   ar
  8835  5631  5645    1
  8836  5638  3119    1
  8837  3039  3043   ar
  8838  8743  8799    1
  8839  5641  5645   ar
  8840  5641  5647   ar
  8841  9991  9995    1
  8842  5551  5572    1
  8843  4283  4312    1
  8844  1855  5014   ar
  8845  1221  4384   ar
  8846  8791  8805    1
  8847  8798  6279    1
  8848  6199  6203   ar
  8849  2412  2408    1
  8850  8801  8805    2
  8851  8801  8807    1
  8852   491   520    1
  8853  8711  8732    1
  8854  7443  7472    1
  8855  8098  8103   ar
  8856  4381  7544   ar
  8857  8111  8167    1
  8858  9359  9363    1
  8859  3651  3680    1
  8860  1223  4382   ar
  8861   589  3752   ar
  8862  8159  8173    1
  8863  8166  5647    1
  8864  5567  5571   ar
  8865  1780  1776    1
  8866  8169  8173    2
  8867  8169  8175    1
  8868  8079  8100    1
  8869  6811  6840    1
  8870  4383  7542   ar
  8871  3749  6912   ar
  8872  8727  8731    1
  8873  4940  4936   ar
  8874  3019  3048    1
  8875   591  3750   ar
  8876  9971 10000    1
  8877  6909 10072   ar
  8878  1148  1144    1
  8879  6179  6208    1
  8880  3751  6910   ar
  8881  3117  6280   ar
  8882  2416  2409   ar
  8883  8095  8099    1
  8884  4308  4304   ar
  8885  9339  9368    1
  8886  6911 10070   ar
  8887  6277  9440   ar
  8888   516   512    1
  8889  7468  7464   ar
  8890  2476  2483    1
  8891  5547  5576    1
  8892  3119  6278   ar
  8893  1784  1777   ar
  8894  3676  3672   ar
  8895  8707  8736    1
  8896  6279  9438   ar
  8897  5645  8808   ar
  8898  4944  4937   ar
  8899  6836  6832   ar
  8900  1844  1851    1
  8901  1152  1145   ar
  8902  3044  3040   ar
  8903  9996  9992   ar
  8904  5004  5011    1
  8905  8075  8104    1
  8906  5647  8806   ar
  8907  4312  4305   ar
  8908  6204  6200   ar
  8909  1212  1219    1
  8910   520   513    1
  8911  7472  7465   ar
  8912  9364  9360   ar
  8913  4372  4379    1
  8914  3680  3673   ar
  8915  5572  5568   ar
  8916   580   587    1
  8917  7532  7539    1
  8918  6840  6833   ar
  8919  8732  8728   ar
  8920  3740  3747    1
  8921  3048  3041    1
  8922 10000  9993   ar
  8923  6900  6907    1
  8924  2488  2474    1
  8925  2488  2482    1
  8926  6208  6201   ar
  8927  8100  8096   ar
  8928  3108  3115    1
  8929 10060 10067    1
  8930  9368  9361   ar
  8931  6268  6275    1
  8932  1856  1842    1
  8933  1856  1850    1
  8934  2486  2470    1
  8935  2486  2482    1
  8936  2479  2483   ar
  8937  2479  2489   ar
  8938  5576  5569    1
  8939  9428  9435    1
  8940  5016  5002    1
  8941  5016  5010   ar
  8942  8736  8729   ar
  8943  5636  5643    1
  8944  1224  1210    1
  8945  1224  1218    1
  8946  1854  1838    1
  8947  1854  1850    1
  8948  1847  1851   ar
  8949  1847  1857   ar
  8950  8796  8803    1
  8951  4384  4370    1
  8952  4384  4378   ar
  8953  5014  4998    1
  8954  5014  5010   ar
  8955  5007  5011   ar
  8956  5007  5017   ar
  8957  8104  8097    1
  8958   592   578    1
  8959   592   586    1
  8960  1222  1206    1
  8961  1222  1218    1
  8962  1215  1219   ar
  8963  1215  1225   ar
  8964  7544  7530    1
  8965  7544  7538   ar
  8966  8164  8171    1
  8967  3752  3738    1
  8968  3752  3746   ar
  8969  4382  4366    1
  8970  4382  4378   ar
  8971  4375  4379   ar
  8972  4375  4385   ar
  8973   590   574    1
  8974   590   586    1
  8975   583   587   ar
  8976   583   593   ar
  8977  6912  6898    1
  8978  6912  6906   ar
  8979  7542  7526    1
  8980  7542  7538   ar
  8981  7535  7539   ar
  8982  7535  7545   ar
  8983  2483  2490   ar
  8984  3120  3106    1
  8985  3120  3114    1
  8986  3750  3734    1
  8987  3750  3746   ar
  8988  3743  3747   ar
  8989  3743  3753   ar
  8990 10072 10058    1
  8991 10072 10066   ar
  8992  6280  6266    1
  8993  6280  6274   ar
  8994  6910  6894    1
  8995  6910  6906   ar
  8996  6903  6907   ar
  8997  6903  6913   ar
  8998  1851  1858   ar
  8999  3118  3102    1
  9000  3118  3114    1
  9001  3111  3115   ar
  9002  3111  3121   ar
  9003  9440  9426    1
  9004  9440  9434   ar
  9005 10070 10054    1
  9006 10070 10066   ar
  9007 10063 10067   ar
  9008 10063 10073   ar
  9009  5011  5018   ar
  9010  2482  2424    2
  9011  5648  5634    1
  9012  5648  5642    1
  9013  6278  6262    1
  9014  6278  6274   ar
  9015  6271  6275   ar
  9016  6271  6281   ar
  9017  1219  1226   ar
  9018  8808  8794    1
  9019  8808  8802   ar
  9020  9438  9422    1
  9021  9438  9434   ar
  9022  9431  9435   ar
  9023  9431  9441   ar
  9024  4379  4386   ar
  9025  1850  1792    2
  9026  5646  5630    1
  9027  5646  5642    1
  9028  5639  5643   ar
  9029  5639  5649   ar
  9030   587   594   ar
  9031  7539  7546   ar
  9032  5010  4952    1
  9033  8176  8162    1
  9034  8176  8170    1
  9035  8806  8790    1
  9036  8806  8802   ar
  9037  8799  8803   ar
  9038  8799  8809   ar
  9039  3747  3754   ar
  9040  1218  1160    2
  9041  6907  6914   ar
  9042  4378  4320    1
  9043  8174  8158    1
  9044  8174  8170    1
  9045  8167  8171   ar
  9046  8167  8177   ar
  9047  3115  3122   ar
  9048   586   528    2
  9049 10067 10074   ar
  9050  2415  2388    1
  9051  7538  7480    1
  9052  6275  6282   ar
  9053  2472  2489    1
  9054  3746  3688    1
  9055  9435  9442   ar
  9056  1783  1756    1
  9057  1783  2413   ar
  9058  6906  6848    1
  9059  5643  5650   ar
  9060  1840  1857    1
  9061  3114  3056    2
  9062  2400  2439    1
  9063  4943  4916    1
  9064 10066 10008    1
  9065  8803  8810   ar
  9066  1151  1124    1
  9067  1151  1781   ar
  9068  5000  5017    1
  9069  6274  6216    1
  9070  1208  1225    1
  9071  1768  1807    1
  9072  4311  4284    1
  9073  4311  4941   ar
  9074  9434  9376    1
  9075  8171  8178   ar
  9076  2489  2484   ar
  9077   519   492    1
  9078   519  1149   ar
  9079  4368  4385    1
  9080  5642  5584    2
  9081  4928  4967    1
  9082  7471  7444    1
  9083  2411  2439    1
  9084  2411  4946   ar
  9085   576   593    1
  9086  1136  1175    1
  9087  3679  3652    1
  9088  3679  4309   ar
  9089  7528  7545    1
  9090  8802  8744    1
  9091  1857  1852   ar
  9092  3736  3753    1
  9093  4296  4335    1
  9094  6839  6812    1
  9095  6839  7469   ar
  9096  1779  1807    1
  9097  1779  4314   ar
  9098   504   543    1
  9099  5017  5012   ar
  9100  3047  3020    1
  9101  3047  3677   ar
  9102  6896  6913    1
  9103  8170  8112    2
  9104  7456  7495    1
  9105  9999  9972    1
  9106  4939  4967    1
  9107  4939  7474   ar
  9108  1225  1220   ar
  9109  3104  3121    1
  9110  3664  3703    1
  9111  6207  6180    1
  9112  6207  6837   ar
  9113  1147  1175    1
  9114  1147  3682   ar
  9115 10056 10073    1
  9116  4385  4380   ar
  9117  6264  6281    1
  9118  6824  6863    1
  9119  9367  9340    1
  9120  9367  9997   ar
  9121  4307  4335    1
  9122  4307  6842   ar
  9123   593   588   ar
  9124  3032  3071    1
  9125  7545  7540   ar
  9126  5575  5548    1
  9127  5575  6205   ar
  9128   515   543    1
  9129   515  3050   ar
  9130  9424  9441    1
  9131  9984 10023    1
  9132  7467  7495    1
  9133  7467 10002   ar
  9134  3753  3748   ar
  9135  5632  5649    1
  9136  6192  6231    1
  9137  8735  8708    1
  9138  8735  9365   ar
  9139  3675  3703    1
  9140  3675  6210   ar
  9141  6913  6908   ar
  9142  8792  8809    1
  9143  9352  9391    1
  9144  6835  6863    1
  9145  6835  9370   ar
  9146  3121  3116   ar
  9147  5560  5599    1
  9148 10073 10068   ar
  9149  8103  8076    1
  9150  8103  8733   ar
  9151  3043  3071    1
  9152  3043  5578   ar
  9153  9995 10023    1
  9154  2408  2418    2
  9155  2408  2404    1
  9156  6281  6276   ar
  9157  8160  8177    1
  9158  8720  8759    1
  9159  6203  6231    1
  9160  6203  8738   ar
  9161  9441  9436   ar
  9162  2490  2473    1
  9163  2490  2480   ar
  9164  9363  9391    1
  9165  1776  1786    2
  9166  1776  1772    1
  9167  5649  5644   ar
  9168  8088  8127    1
  9169  5571  5599    1
  9170  5571  8106   ar
  9171  4936  4946   ar
  9172  4936  4932    1
  9173  8809  8804   ar
  9174  1858  1841    1
  9175  1858  1848   ar
  9176  8731  8759    1
  9177  1144  1154    2
  9178  1144  1140    1
  9179  2424  2492    1
  9180  2424  2493    1
  9181  2409  2413   ar
  9182  2409  2405    1
  9183  5018  5001    1
  9184  5018  5008   ar
  9185  4304  4314   ar
  9186  4304  4300    1
  9187  8177  8172   ar
  9188  1226  1209    1
  9189  1226  1216   ar
  9190  8099  8127    1
  9191   512   522    2
  9192   512   508    1
  9193  1792  1860    1
  9194  1792  1861    1
  9195  7464  7474   ar
  9196  7464  7460    1
  9197  1777  1781   ar
  9198  1777  1773    1
  9199  4386  4369    1
  9200  4386  4376   ar
  9201  3672  3682   ar
  9202  3672  3668    1
  9203  4952  5020    1
  9204  4952  5021    1
  9205   594   577    1
  9206   594   584   ar
  9207  4937  4941   ar
  9208  4937  4933    1
  9209  7546  7529    1
  9210  7546  7536   ar
  9211  1160  1228    1
  9212  1160  1229    1
  9213  6832  6842   ar
  9214  6832  6828    1
  9215  1145  1149   ar
  9216  1145  1141    1
  9217  3754  3737    1
  9218  3754  3744   ar
  9219  2439  2399    1
  9220  3040  3050   ar
  9221  3040  3036    1
  9222  4320  4388    1
  9223  4320  4389    1
  9224  9992 10002   ar
  9225  9992  9988    1
  9226  4305  4309   ar
  9227  4305  4301    1
  9228  6914  6897    1
  9229  6914  6904   ar
  9230   528   596    1
  9231   528   597    1
  9232  6200  6210   ar
  9233  6200  6196    1
  9234  7480  7548    1
  9235  7480  7549    1
  9236   513   517    2
  9237   513   509    1
  9238  3122  3105    1
  9239  3122  3112   ar
  9240  7465  7469   ar
  9241  7465  7461    1
  9242  1807  1767    1
  9243 10074 10057    1
  9244 10074 10064   ar
  9245  3688  3756    1
  9246  3688  3757    1
  9247  9360  9370   ar
  9248  9360  9356    1
  9249  3673  3677   ar
  9250  3673  3669    1
  9251  6282  6265    1
  9252  6282  6272   ar
  9253  4967  4927    1
  9254  5568  5578   ar
  9255  5568  5564    1
  9256  6848  6916    1
  9257  6848  6917    1
  9258  6833  6837   ar
  9259  6833  6829    1
  9260  1175  1135    1
  9261  9442  9425    1
  9262  9442  9432   ar
  9263  3056  3124    1
  9264  3056  3125    1
  9265  8728  8738   ar
  9266  8728  8724    1
  9267 10008 10076    1
  9268 10008 10077    1
  9269  3041  3045    2
  9270  3041  3037    1
  9271  5650  5633    1
  9272  5650  5640   ar
  9273  9993  9997   ar
  9274  9993  9989    1
  9275  4335  4295    1
  9276  6216  6284    1
  9277  6216  6285    1
  9278  6201  6205   ar
  9279  6201  6197    1
  9280  2492  2377    1
  9281   543   503    1
  9282  8810  8793    1
  9283  8810  8800   ar
  9284  7495  7455    1
  9285  8096  8106   ar
  9286  8096  8092    1
  9287  9376  9444    1
  9288  9376  9445    1
  9289  9361  9365   ar
  9290  9361  9357    1
  9291  3703  3663    1
  9292  5584  5652    1
  9293  5584  5653    1
  9294  5569  5573    2
  9295  5569  5565    1
  9296  1860  1745    1
  9297  8178  8161    1
  9298  8178  8168   ar
  9299  6863  6823    1
  9300  2493  2373    1
  9301  8744  8812    1
  9302  8744  8813    1
  9303  2418  2389    1
  9304  2484  2480   ar
  9305  2484  2469    1
  9306  8729  8733   ar
  9307  8729  8725    1
  9308  5020  4905    1
  9309  3071  3031    1
  9310 10023  9983    1
  9311  1228  1113    1
  9312  6231  6191    1
  9313  1861  1741    1
  9314  8112  8180    1
  9315  8112  8181    1
  9316  1786  1757    1
  9317  1852  1848   ar
  9318  1852  1837    1
  9319  8097  8101    2
  9320  8097  8093    1
  9321  4388  4273    1
  9322  2442  2404    1
  9323  2442  2377    1
  9324  9391  9351    1
  9325  5021  4901    1
  9326  2413  2440    1
  9327  4946  4917    1
  9328  5012  5008   ar
  9329  5012  4997    1
  9330   596   481    1
  9331  7548  7433    1
  9332  5599  5559    1
  9333  1229  1109    1
  9334  1154  1125    1
  9335  1220  1216   ar
  9336  1220  1205    1
  9337  3756  3641    1
  9338  1810  1772    1
  9339  1810  1745    1
  9340  8759  8719    1
  9341  4389  4269    1
  9342  1781  1808    1
  9343  4314  4285    1
  9344  4380  4376   ar
  9345  4380  4365    1
  9346  2480  2475    1
  9347  6916  6801    1
  9348   597   477    1
  9349   522   493    1
  9350  4970  4932    1
  9351  4970  4905    1
  9352   588   584   ar
  9353   588   573    1
  9354  2446  2405    1
  9355  2446  2373    1
  9356  7549  7429    1
  9357  4941  4968    1
  9358  7474  7445    1
  9359  7540  7536   ar
  9360  7540  7525    1
  9361  3124  3009    1
  9362  1178  1140    1
  9363  1178  1113    1
  9364 10076  9961    1
  9365  8127  8087    1
  9366  3757  3637    1
  9367  1149  1176    1
  9368  3682  3653    1
  9369  3748  3744   ar
  9370  3748  3733    1
  9371  1848  1843    1
  9372  6284  6169    1
  9373  4338  4300    1
  9374  4338  4273    1
  9375  1814  1773    1
  9376  1814  1741    1
  9377  6917  6797    1
  9378  4309  4336    1
  9379  6842  6813    1
  9380  6908  6904   ar
  9381  6908  6893    1
  9382  5008  5003    1
  9383   546   508    1
  9384   546   481    1
  9385  9444  9329    1
  9386  3125  3005    1
  9387   517   544    1
  9388  3050  3021    1
  9389  7498  7460    1
  9390  7498  7433    1
  9391  3116  3112   ar
  9392  3116  3101    1
  9393  4974  4933    1
  9394  4974  4901    1
  9395 10077  9957    1
  9396  1216  1211    1
  9397  7469  7496    1
  9398 10002  9973    1
  9399 10068 10064   ar
  9400 10068 10053    1
  9401  5652  5537    1
  9402  3706  3668    1
  9403  3706  3641    1
  9404  1182  1141    1
  9405  1182  1109    1
  9406  6285  6165    1
  9407  3677  3704    1
  9408  6210  6181    1
  9409  6276  6272   ar
  9410  6276  6261    1
  9411  4376  4371    1
  9412  8812  8697    1
  9413  6866  6828    1
  9414  6866  6801    1
  9415  4342  4301    1
  9416  4342  4269    1
  9417  9445  9325    1
  9418   584   579    1
  9419  6837  6864    1
  9420  9370  9341    1
  9421  9436  9432   ar
  9422  9436  9421    1
  9423  7536  7531    1
  9424  3074  3036    1
  9425  3074  3009    1
  9426   550   509    1
  9427   550   477    1
  9428  5653  5533    1
  9429  3045  3072    1
  9430  5578  5549    1
  9431 10026  9988    1
  9432 10026  9961    1
  9433  5644  5640   ar
  9434  5644  5629    1
  9435  7502  7461    1
  9436  7502  7429    1
  9437  3744  3739    1
  9438  9997 10024    1
  9439  8180  8065    1
  9440  6234  6196    1
  9441  6234  6169    1
  9442  3710  3669    1
  9443  3710  3637    1
  9444  8813  8693    1
  9445  6205  6232    1
  9446  8738  8709    1
  9447  8804  8800   ar
  9448  8804  8789    1
  9449  6904  6899    1
  9450  9394  9356    1
  9451  9394  9329    1
  9452  6870  6829    1
  9453  6870  6797    1
  9454  3112  3107    1
  9455  9365  9392    1
  9456 10064 10059    1
  9457  5602  5564    1
  9458  5602  5537    1
  9459  3078  3037    1
  9460  3078  3005    1
  9461  8181  8061    1
  9462  5573  5600    1
  9463  8106  8077    1
  9464  8172  8168   ar
  9465  8172  8157    1
  9466 10030  9989    1
  9467 10030  9957    1
  9468  6272  6267    1
  9469  8762  8724    1
  9470  8762  8697    1
  9471  6238  6197    1
  9472  6238  6165    1
  9473  8733  8760    1
  9474  9432  9427    1
  9475  2404  2448    1
  9476  9398  9357    1
  9477  9398  9325    1
  9478  5640  5635    1
  9479  8130  8092    1
  9480  8130  8065    1
  9481  5606  5565    1
  9482  5606  5533    1
  9483  8101  8128    1
  9484  8800  8795    1
  9485  1772  1816    1
  9486  8766  8725    1
  9487  8766  8693    1
  9488  4932  4976    1
  9489  2405  2443    1
  9490  8168  8163    1
  9491  1140  1184    1
  9492  8134  8093    1
  9493  8134  8061    1
  9494  4300  4344    1
  9495  1773  1811    1
  9496   508   552    1
  9497  7460  7504    1
  9498  4933  4971    1
  9499  3668  3712    1
  9500  1141  1179    1
  9501  6828  6872    1
  9502  4301  4339    1
  9503  3036  3080    1
  9504  9988 10032    1
  9505   509   547    1
  9506  7461  7499    1
  9507  6196  6240    1
  9508  3669  3707    1
  9509  9356  9400    1
  9510  6829  6867    1
  9511  5564  5608    1
  9512  3037  3075    1
  9513  9989 10027    1
  9514  8724  8768    1
  9515  6197  6235    1
  9516  9357  9395    1
  9517  8092  8136    1
  9518  5565  5603    1
  9519  8725  8763    1
  9520  8093  8131    1
  9521  2440  2401    1
  9522  2440  2402    1
  9523  2377  2466    1
  9524  2377  2450    1
  9525  2377  2452    1
  9526  1808  1769    1
  9527  1808  1770    1
  9528  1745  1834    1
  9529  1745  1818    1
  9530  1745  1820    1
  9531  4968  4929    1
  9532  4968  4930    1
  9533  2373  2455    1
  9534  2373  2453    1
  9535  1176  1137    1
  9536  1176  1138    1
  9537  4905  4994    1
  9538  4905  4978    1
  9539  4905  4980    1
  9540  1113  1202    1
  9541  1113  1186    1
  9542  1113  1188    1
  9543  4336  4297    1
  9544  4336  4298    1
  9545  1741  1823    1
  9546  1741  1821    1
  9547   544   505    1
  9548   544   506    1
  9549  4273  4362    1
  9550  4273  4346    1
  9551  4273  4348    1
  9552  7496  7457    1
  9553  7496  7458    1
  9554  4901  4983    1
  9555  4901  4981    1
  9556   481   570    1
  9557   481   554    1
  9558   481   556    1
  9559  3704  3665    1
  9560  3704  3666    1
  9561  7433  7522    1
  9562  7433  7506    1
  9563  7433  7508    1
  9564  1109  1191    1
  9565  1109  1189    1
  9566  3641  3730    1
  9567  3641  3714    1
  9568  3641  3716    1
  9569  6864  6825    1
  9570  6864  6826    1
  9571  4269  4351    1
  9572  4269  4349    1
  9573  3072  3033    1
  9574  3072  3034    1
  9575  6801  6890    1
  9576  6801  6874    1
  9577  6801  6876    1
  9578 10024  9985    1
  9579 10024  9986    1
  9580   477   559    1
  9581   477   557    1
  9582  2448  2371    1
  9583  7429  7511    1
  9584  7429  7509    1
  9585  3009  3098    1
  9586  3009  3082    1
  9587  3009  3084    1
  9588  6232  6193    1
  9589  6232  6194    1
  9590  9961 10050    1
  9591  9961 10034    1
  9592  9961 10036    1
  9593  3637  3719    1
  9594  3637  3717    1
  9595  6169  6258    1
  9596  6169  6242    1
  9597  6169  6244    1
  9598  9392  9353    1
  9599  9392  9354    1
  9600  1816  1739    1
  9601  6797  6879    1
  9602  6797  6877    1
  9603  5600  5561    1
  9604  5600  5562    1
  9605  9329  9418    1
  9606  9329  9402    1
  9607  9329  9404    1
  9608  3005  3087    1
  9609  3005  3085    1
  9610  4976  4899    1
  9611  9957 10039    1
  9612  9957 10037    1
  9613  5537  5626    1
  9614  5537  5610    1
  9615  5537  5612    1
  9616  8760  8721    1
  9617  8760  8722    1
  9618  1184  1107    1
  9619  6165  6247    1
  9620  6165  6245    1
  9621  2443  2376    1
  9622  8697  8786    1
  9623  8697  8770    1
  9624  8697  8772    1
  9625  4344  4267    1
  9626  9325  9407    1
  9627  9325  9405    1
  9628  8128  8089    1
  9629  8128  8090    1
  9630   552   475    1
  9631  2397  2438    1
  9632  5533  5615    1
  9633  5533  5613    1
  9634  7504  7427    1
  9635  1811  1744    1
  9636  8065  8154    1
  9637  8065  8138    1
  9638  8065  8140    1
  9639  3712  3635    1
  9640  8693  8775    1
  9641  8693  8773    1
  9642  4971  4904    1
  9643  1765  1806    1
  9644  6872  6795    1
  9645  1179  1112    1
  9646  3080  3003    1
  9647  4925  4966    1
  9648  8061  8143    1
  9649  8061  8141    1
  9650 10032  9955    1
  9651  4339  4272    1
  9652  1133  1174    1
  9653  6240  6163    1
  9654   547   480    1
  9655  7499  7432    1
  9656  4293  4334    1
  9657  9400  9323    1
  9658  3707  3640    1
  9659   501   542    1
  9660  5608  5531    1
  9661  7453  7494    1
  9662  6867  6800    1
  9663  3661  3702    1
  9664  8768  8691    1
  9665  3075  3008    1
  9666 10027  9960    1
  9667  6821  6862    1
  9668  6235  6168    1
  9669  2466  2396    1
  9670  3029  3070    1
  9671  8136  8059    1
  9672  9981 10022    1
  9673  9395  9328    1
  9674  6189  6230    1
  9675  5603  5536    1
  9676  1834  1764    1
  9677  9349  9390    1
  9678  2450  2371    1
  9679  8763  8696    1
  9680  4994  4924    1
  9681  5557  5598    1
  9682  1202  1132    1
  9683  8717  8758    1
  9684  1818  1739    1
  9685  8131  8064    1
  9686  4362  4292    1
  9687   570   500    1
  9688  4978  4899    1
  9689  7522  7452    1
  9690  8085  8126    1
  9691  1186  1107    1
  9692  3730  3660    1
  9693  2455  2376    1
  9694  4346  4267    1
  9695  6890  6820    1
  9696   554   475    1
  9697  3098  3028    1
  9698  7506  7427    1
  9699  1823  1744    1
  9700 10050  9980    1
  9701  3714  3635    1
  9702  6258  6188    1
  9703  4983  4904    1
  9704  2348  2342    1
  9705  6874  6795    1
  9706  1191  1112    1
  9707  9418  9348    1
  9708  3082  3003    1
  9709  5626  5556    1
  9710 10034  9955    1
  9711  4351  4272    1
  9712  1716  1710    1
  9713  2350  2342    1
  9714  6242  6163    1
  9715   559   480    1
  9716  8786  8716    1
  9717  7511  7432    1
  9718  4876  4870    1
  9719  9402  9323    1
  9720  3719  3640    1
  9721  1084  1078    1
  9722  1718  1710    1
  9723  5610  5531    1
  9724  8154  8084    1
  9725  6879  6800    1
  9726  4244  4238    1
  9727  4878  4870    1
  9728  8770  8691    1
  9729  3087  3008    1
  9730   452   446    1
  9731 10039  9960    1
  9732  7404  7398    1
  9733  1086  1078    1
  9734  6247  6168    1
  9735  2398  2438    1
  9736  3612  3606    1
  9737  2361  2370    2
  9738  4246  4238    1
  9739  8138  8059    1
  9740  9407  9328    1
  9741  2438  2433    1
  9742  6772  6766    1
  9743   454   446    1
  9744  7406  7398    1
  9745  5615  5536    1
  9746  1766  1806    1
  9747  2980  2974    1
  9748  1729  1738    2
  9749  9932  9926    1
  9750  3614  3606    1
  9751  2452  2371    1
  9752  2367  2358    1
  9753  8775  8696    1
  9754  4926  4966    1
  9755  1806  1801    1
  9756  6140  6134    1
  9757  4889  4898    2
  9758  6774  6766    1
  9759  1134  1174    1
  9760  1097  1106    2
  9761  4966  4961    1
  9762  9300  9294    1
  9763  2982  2974    1
  9764  1820  1739    1
  9765  1735  1726    1
  9766  9934  9926    1
  9767  8143  8064    1
  9768  4294  4334    1
  9769  1174  1169    1
  9770  5508  5502    1
  9771  4257  4266    2
  9772  6142  6134    1
  9773  4980  4899    1
  9774   502   542    1
  9775  4895  4886    1
  9776  2453  2376    1
  9777  7454  7494    1
  9778   465   474    2
  9779  4334  4329    1
  9780  8668  8662    1
  9781  1188  1107    1
  9782  7417  7426    2
  9783  1103  1094    1
  9784  9302  9294    1
  9785  3662  3702    1
  9786   542   537    1
  9787  3625  3634    2
  9788  7494  7489    1
  9789  5510  5502    1
  9790  4348  4267    1
  9791  4263  4254    1
  9792  1821  1744    1
  9793  6822  6862    1
  9794  3702  3697    1
  9795  8036  8030    1
  9796   556   475    1
  9797  6785  6794    2
  9798   471   462    1
  9799  8670  8662    1
  9800  7508  7427    1
  9801  3030  3070    1
  9802  7423  7414    1
  9803  4981  4904    1
  9804  9982 10022    1
  9805  2993  3002    2
  9806  6862  6857    1
  9807  3716  3635    1
  9808  9945  9954    2
  9809  3631  3622    1
  9810  1189  1112    1
  9811  6190  6230    1
  9812  3070  3065    1
  9813  6153  6162    2
  9814 10022 10017    1
  9815  8038  8030    1
  9816  6876  6795    1
  9817  6791  6782    1
  9818  4349  4272    1
  9819  9350  9390    1
  9820  6230  6225    1
  9821  3084  3003    1
  9822  9313  9322    2
  9823  2999  2990    1
  9824   557   480    1
  9825 10036  9955    1
  9826  2381  2432    1
  9827  5558  5598    1
  9828  9951  9942    1
  9829  7509  7432    1
  9830  5521  5530    2
  9831  9390  9385    1
  9832  6244  6163    1
  9833  6159  6150    1
  9834  3717  3640    1
  9835  8718  8758    1
  9836  5598  5593    1
  9837  8681  8690    2
  9838  9404  9323    1
  9839  1749  1800    1
  9840  9319  9310    1
  9841  6877  6800    1
  9842  2345  2339    1
  9843  8758  8753    1
  9844  5612  5531    1
  9845  5527  5518    1
  9846  3085  3008    1
  9847  4909  4960    1
  9848  8086  8126    1
  9849 10037  9960    1
  9850  2342  2353    1
  9851  2342  2337    1
  9852  8049  8058    2
  9853  8772  8691    1
  9854  1117  1168    1
  9855  8687  8678    1
  9856  6245  6168    1
  9857  1713  1707    1
  9858  8126  8121    1
  9859  2383  2435    1
  9860  4277  4328    1
  9861  9405  9328    1
  9862  1710  1721    1
  9863  1710  1705    1
  9864  4873  4867    1
  9865  2379  2430    1
  9866  8140  8059    1
  9867   485   536    1
  9868  8055  8046    1
  9869  5613  5536    1
  9870  1081  1075    1
  9871  7437  7488    1
  9872  4870  4881    1
  9873  4870  4865    1
  9874  1751  1803    1
  9875  3645  3696    1
  9876  8773  8696    1
  9877  1078  1089    1
  9878  1078  1073    1
  9879  4241  4235    1
  9880  4911  4963    1
  9881  1747  1798    1
  9882   449   443    1
  9883  6805  6856    1
  9884  4238  4249    1
  9885  4238  4233    1
  9886  7401  7395    1
  9887  1119  1171    1
  9888  4907  4958    1
  9889  3013  3064    1
  9890  8141  8064    1
  9891   446   457    1
  9892   446   441    1
  9893  3609  3603    1
  9894  9965 10016    1
  9895  7398  7409    1
  9896  7398  7393    1
  9897  4279  4331    1
  9898  1115  1166    1
  9899  6173  6224    1
  9900  3606  3617    1
  9901  3606  3601    1
  9902  6769  6763    1
  9903   487   539    1
  9904  7439  7491    1
  9905  4275  4326    1
  9906  2977  2971    1
  9907  9333  9384    1
  9908  6766  6777    1
  9909  6766  6761    1
  9910  9929  9923    1
  9911  3647  3699    1
  9912   483   534    1
  9913  7435  7486    1
  9914  5541  5592    1
  9915  2974  2985    1
  9916  2974  2969    1
  9917  6137  6131    1
  9918  9926  9937    1
  9919  9926  9921    1
  9920  6807  6859    1
  9921  3643  3694    1
  9922  8701  8752    1
  9923  2371  2462    1
  9924  2371  2464    1
  9925  6134  6145    1
  9926  6134  6129    1
  9927  9297  9291    1
  9928  3015  3067    1
  9929  9967 10019    1
  9930  6803  6854    1
  9931  5505  5499    1
  9932  9294  9305    1
  9933  9294  9289    1
  9934  6175  6227    1
  9935  3011  3062    1
  9936  9963 10014    1
  9937  8069  8120    1
  9938  1739  1830    1
  9939  1739  1832    1
  9940  5502  5513    1
  9941  5502  5497    1
  9942  8665  8659    1
  9943  9335  9387    1
  9944  6171  6222    1
  9945  4899  4990    1
  9946  4899  4992    1
  9947  8662  8673    1
  9948  8662  8657    1
  9949  5543  5595    1
  9950  9331  9382    1
  9951  1107  1198    1
  9952  1107  1200    1
  9953  8033  8027    1
  9954  8703  8755    1
  9955  5539  5590    1
  9956  2376  2459    1
  9957  2376  2457    1
  9958  4267  4358    1
  9959  4267  4360    1
  9960  8030  8041    1
  9961  8030  8025    1
  9962  8699  8750    1
  9963   475   566    1
  9964   475   568    1
  9965  7427  7518    1
  9966  7427  7520    1
  9967  8071  8123    1
  9968  1744  1827    1
  9969  1744  1825    1
  9970  3635  3726    1
  9971  3635  3728    1
  9972  8067  8118    1
  9973  4904  4987    1
  9974  4904  4985    1
  9975  6795  6886    1
  9976  6795  6888    1
  9977  1112  1195    1
  9978  1112  1193    1
  9979  3003  3094    1
  9980  3003  3096    1
  9981  9955 10046    1
  9982  9955 10048    1
  9983  4272  4355    1
  9984  4272  4353    1
  9985  6163  6254    1
  9986  6163  6256    1
  9987   480   563    1
  9988   480   561    1
  9989  7432  7515    1
  9990  7432  7513    1
  9991  9323  9414    1
  9992  9323  9416    1
  9993  3640  3723    1
  9994  3640  3721    1
  9995  5531  5622    1
  9996  5531  5624    1
  9997  2356  2370    1
  9998  2356  2369    1
  9999  6800  6883    1
 10000  6800  6881    1
 10001  8691  8782    1
 10002  8691  8784    1
 10003  3008  3091    1
 10004  3008  3089    1
 10005  9960 10043    1
 10006  9960 10041    1
 10007  1724  1738    1
 10008  1724  1737    1
 10009  6168  6251    1
 10010  6168  6249    1
 10011  8059  8150    1
 10012  8059  8152    1
 10013  4884  4898    1
 10014  4884  4897    1
 10015  9328  9411    1
 10016  9328  9409    1
 10017  1092  1106    1
 10018  1092  1105    1
 10019  5536  5619    1
 10020  5536  5617    1
 10021  4252  4266    1
 10022  4252  4265    1
 10023  2370  2358    1
 10024  2370  2362    2
 10025  8696  8779    1
 10026  8696  8777    1
 10027   460   474    1
 10028   460   473    1
 10029  2359  2369    2
 10030  7412  7426    1
 10031  7412  7425    1
 10032  2358  2368    1
 10033  2358  2364    1
 10034  2433  4960    2
 10035  3620  3634    1
 10036  3620  3633    1
 10037  1738  1726    1
 10038  1738  1730    2
 10039  8064  8147    1
 10040  8064  8145    1
 10041  1727  1737    2
 10042  6780  6794    1
 10043  6780  6793    1
 10044  1726  1736    1
 10045  1726  1732    1
 10046  1801  4328    2
 10047  4898  4886    1
 10048  4898  4890    2
 10049  2988  3002    1
 10050  2988  3001    1
 10051  4887  4897    2
 10052  9940  9954    1
 10053  9940  9953    1
 10054  1106  1094    1
 10055  1106  1098    2
 10056  4886  4896    1
 10057  4886  4892    1
 10058  1095  1105    2
 10059  4961  7488    2
 10060  6148  6162    1
 10061  6148  6161    1
 10062  2339  2337    1
 10063  2339  2340    2
 10064  1094  1104    1
 10065  1094  1100    1
 10066  1169  3696    2
 10067  4266  4254    1
 10068  4266  4258    2
 10069  4255  4265    2
 10070  9308  9322    1
 10071  9308  9321    1
 10072   474   462    1
 10073   474   466    2
 10074  4254  4264    1
 10075  4254  4260    1
 10076   463   473    2
 10077  4329  6856    2
 10078  7426  7414    1
 10079  7426  7418    2
 10080  2435  1798    2
 10081  5516  5530    1
 10082  5516  5529    1
 10083  7415  7425    2
 10084  1707  1705    1
 10085  1707  1708    2
 10086   462   472    1
 10087   462   468    1
 10088   537  3064    2
 10089  3634  3622    1
 10090  3634  3626    2
 10091  7414  7424    1
 10092  7414  7420    1
 10093  3623  3633    2
 10094  7489 10016    2
 10095  8676  8690    1
 10096  8676  8689    1
 10097  4867  4865    1
 10098  4867  4868    2
 10099  3622  3632    1
 10100  3622  3628    1
 10101  3697  6224    2
 10102  6794  6782    1
 10103  6794  6786    2
 10104  1803  1166    2
 10105  6783  6793    2
 10106  1075  1073    1
 10107  1075  1076    2
 10108  3002  2990    1
 10109  3002  2994    2
 10110  6782  6792    1
 10111  6782  6788    1
 10112  2991  3001    2
 10113  6857  9384    2
 10114  9954  9942    1
 10115  9954  9946    2
 10116  4963  4326    2
 10117  8044  8058    1
 10118  8044  8057    1
 10119  9943  9953    2
 10120  4235  4233    1
 10121  4235  4236    2
 10122  2337  2343    1
 10123  2990  3000    1
 10124  2990  2996    1
 10125  3065  5592    2
 10126  6162  6150    1
 10127  6162  6154    2
 10128  9942  9952    1
 10129  9942  9948    1
 10130  1171   534    2
 10131  6151  6161    2
 10132   443   441    1
 10133   443   444    2
 10134  7395  7393    1
 10135  7395  7396    2
 10136  6150  6160    1
 10137  6150  6156    1
 10138  6225  8752    2
 10139  9322  9310    1
 10140  9322  9314    2
 10141  4331  3694    2
 10142  9311  9321    2
 10143  3603  3601    1
 10144  3603  3604    2
 10145  1705  1711    1
 10146  5530  5518    1
 10147  5530  5522    2
 10148  9310  9320    1
 10149  9310  9316    1
 10150  5519  5529    2
 10151  7491  6854    2
 10152  6763  6761    1
 10153  6763  6764    2
 10154  4865  4871    1
 10155  5518  5528    1
 10156  5518  5524    1
 10157  5593  8120    2
 10158  8690  8678    1
 10159  8690  8682    2
 10160  3699  3062    2
 10161  8679  8689    2
 10162  2971  2969    1
 10163  2971  2972    2
 10164  1073  1079    1
 10165  9923  9921    1
 10166  9923  9924    2
 10167  8678  8688    1
 10168  8678  8684    1
 10169  6859  6222    2
 10170  6131  6129    1
 10171  6131  6132    2
 10172  4233  4239    1
 10173  8058  8046    1
 10174  8058  8050    2
 10175  8047  8057    2
 10176 10019  9382    2
 10177   441   447    1
 10178  9291  9289    1
 10179  9291  9292    2
 10180  7393  7399    1
 10181  8046  8056    1
 10182  8046  8052    1
 10183  6227  5590    2
 10184  5499  5497    1
 10185  5499  5500    2
 10186  3601  3607    1
 10187  9387  8750    2
 10188  8659  8657    1
 10189  8659  8660    2
 10190  6761  6767    1
 10191  2969  2975    1
 10192  9921  9927    1
 10193  8755  8118    2
 10194  8027  8025    1
 10195  8027  8028    2
 10196  6129  6135    1
 10197  9289  9295    1
 10198  5497  5503    1
 10199  8657  8663    1
 10200  2369  2360    2
 10201  2369  2357    1
 10202  8025  8031    1
 10203  1737  1728    2
 10204  1737  1725    1
 10205  4897  4888    2
 10206  4897  4885    1
 10207  1105  1096    2
 10208  1105  1093    1
 10209  4265  4256    2
 10210  4265  4253    1
 10211   473   464    2
 10212   473   461    1
 10213  7425  7416    2
 10214  7425  7413    1
 10215  3633  3624    2
 10216  3633  3621    1
 10217  6793  6784    2
 10218  6793  6781    1
 10219  3001  2992    2
 10220  3001  2989    1
 10221  9953  9944    2
 10222  9953  9941    1
 10223  6161  6152    2
 10224  6161  6149    1
 10225  9321  9312    2
 10226  9321  9309    1
 10227  5529  5520    2
 10228  5529  5517    1
 10229  8689  8680    2
 10230  8689  8677    1
 10231  8057  8048    2
 10232  8057  8045    1
 10233  2340  2346    1
 10234  2340  2338    1
 10235  1708  1714    1
 10236  1708  1706    1
 10237  4868  4874    1
 10238  4868  4866    1
 10239  1076  1082    1
 10240  1076  1074    1
 10241  4236  4242    1
 10242  4236  4234    1
 10243   444   450    1
 10244   444   442    1
 10245  7396  7402    1
 10246  7396  7394    1
 10247  2343  2354    1
 10248  2343  2338    1
 10249  3604  3610    1
 10250  3604  3602    1
 10251  6764  6770    1
 10252  6764  6762    1
 10253  1711  1722    1
 10254  1711  1706    1
 10255  2972  2978    1
 10256  2972  2970    1
 10257  9924  9930    1
 10258  9924  9922    1
 10259  4871  4882    1
 10260  4871  4866    1
 10261  6132  6138    1
 10262  6132  6130    1
 10263  1079  1090    1
 10264  1079  1074    1
 10265  9292  9298    1
 10266  9292  9290    1
 10267  4239  4250    1
 10268  4239  4234    1
 10269  5500  5506    1
 10270  5500  5498    1
 10271   447   458    1
 10272   447   442    1
 10273  7399  7410    1
 10274  7399  7394    1
 10275  8660  8666    1
 10276  8660  8658    1
 10277  3607  3618    1
 10278  3607  3602    1
 10279  6767  6778    1
 10280  6767  6762    1
 10281  8028  8034    1
 10282  8028  8026    1
 10283  2975  2986    1
 10284  2975  2970    1
 10285  9927  9938    1
 10286  9927  9922    1
 10287  6135  6146    1
 10288  6135  6130    1
 10289  9295  9306    1
 10290  9295  9290    1
 10291  2363  2357    1
 10292  5503  5514    1
 10293  5503  5498    1
 10294  8663  8674    1
 10295  8663  8658    1
 10296  1731  1725    1
 10297  4891  4885    1
 10298  8031  8042    1
 10299  8031  8026    1
 10300  1099  1093    1
 10301  4259  4253    1
 10302   467   461    1
 10303  7419  7413    1
 10304  3627  3621    1
 10305  6787  6781    1
 10306  2995  2989    1
 10307  9947  9941    1
 10308  6155  6149    1
 10309  2357  2365    1
 10310  2357  2366    1
 10311  9315  9309    1
 10312  2338  2344    1
 10313  5523  5517    1
 10314  1725  1733    1
 10315  1725  1734    1
 10316  8683  8677    1
 10317  4885  4893    1
 10318  4885  4894    1
 10319  1706  1712    1
 10320  1093  1101    1
 10321  1093  1102    1
 10322  4866  4872    1
 10323  8051  8045    1
 10324  4253  4261    1
 10325  4253  4262    1
 10326  1074  1080    1
 10327   461   469    1
 10328   461   470    1
 10329  7413  7421    1
 10330  7413  7422    1
 10331  4234  4240    1
 10332  3621  3629    1
 10333  3621  3630    1
 10334   442   448    1
 10335  7394  7400    1
 10336  6781  6789    1
 10337  6781  6790    1
 10338  3602  3608    1
 10339  2989  2997    1
 10340  2989  2998    1
 10341  9941  9949    1
 10342  9941  9950    1
 10343  6762  6768    1
 10344  6149  6157    1
 10345  6149  6158    1
 10346  2970  2976    1
 10347  9922  9928    1
 10348  9309  9317    1
 10349  9309  9318    1
 10350  6130  6136    1
 10351  5517  5525    1
 10352  5517  5526    1
 10353  9290  9296    1
 10354  8677  8685    1
 10355  8677  8686    1
 10356  5498  5504    1
 10357  8658  8664    1
 10358  8045  8053    1
 10359  8045  8054    1
 10360  8026  8032    1
 10361  2347  2341    1
 10362  1715  1709    1
 10363  4875  4869    1
 10364  2344  2352    1
 10365  2344  2341    1
 10366  2344  2355    1
 10367  1083  1077    1
 10368  4243  4237    1
 10369  1712  1720    1
 10370  1712  1709    1
 10371  1712  1723    1
 10372  2349  2341    1
 10373   451   445    1
 10374  7403  7397    1
 10375  4872  4880    1
 10376  4872  4869    1
 10377  4872  4883    1
 10378  3611  3605    1
 10379  1080  1088    1
 10380  1080  1077    1
 10381  1080  1091    1
 10382  1717  1709    1
 10383  6771  6765    1
 10384  4240  4248    1
 10385  4240  4237    1
 10386  4240  4251    1
 10387  4877  4869    1
 10388  2979  2973    1
 10389   448   456    1
 10390   448   445    1
 10391   448   459    1
 10392  9931  9925    1
 10393  7400  7408    1
 10394  7400  7397    1
 10395  7400  7411    1
 10396  1085  1077    1
 10397  6139  6133    1
 10398  3608  3616    1
 10399  3608  3605    1
 10400  3608  3619    1
 10401  4245  4237    1
 10402  9299  9293    1
 10403  6768  6776    1
 10404  6768  6765    1
 10405  6768  6779    1
 10406   453   445    1
 10407  7405  7397    1
 10408  5507  5501    1
 10409  2976  2984    1
 10410  2976  2973    1
 10411  2976  2987    1
 10412  9928  9936    1
 10413  9928  9925    1
 10414  9928  9939    1
 10415  3613  3605    1
 10416  8667  8661    1
 10417  6136  6144    1
 10418  6136  6133    1
 10419  6136  6147    1
 10420  6773  6765    1
 10421  9296  9304    1
 10422  9296  9293    1
 10423  9296  9307    1
 10424  2981  2973    1
 10425  9933  9925    1
 10426  8035  8029    1
 10427  5504  5512    1
 10428  5504  5501    1
 10429  5504  5515    1
 10430  6141  6133    1
 10431  8664  8672    1
 10432  8664  8661    1
 10433  8664  8675    1
 10434  2341  2351    1
 10435  9301  9293    1
 10436  5509  5501    1
 10437  8032  8040    1
 10438  8032  8029    1
 10439  8032  8043    1
 10440  1709  1719    1
 10441  8669  8661    1
 10442  4869  4879    1
 10443  1077  1087    1
 10444  8037  8029    1
 10445  4237  4247    1
 10446   445   455    1
 10447  7397  7407    1
 10448  3605  3615    1
 10449  6765  6775    1
 10450  2973  2983    1
 10451  9925  9935    1
 10452  6133  6143    1
 10453  9293  9303    1
 10454  5501  5511    1
 10455  8661  8671    1
 10456  8029  8039    1
 10457  2506  2500    1
 10458  1874  1868    1
 10459  2508  2500    1
 10460  5034  5028    1
 10461  1242  1236    1
 10462  1876  1868    1
 10463  4402  4396    1
 10464  5036  5028    1
 10465   610   604    1
 10466  7562  7556    1
 10467  1244  1236    1
 10468  3770  3764    1
 10469  2519  2528    2
 10470  4404  4396    1
 10471  6930  6924    1
 10472   612   604    1
 10473  7564  7556    1
 10474  3138  3132    1
 10475  1887  1896    2
 10476 10090 10084    1
 10477  3772  3764    1
 10478  2525  2516    1
 10479  6298  6292    1
 10480  5047  5056    2
 10481  6932  6924    1
 10482  1255  1264    2
 10483  9458  9452    1
 10484  3140  3132    1
 10485  1893  1884    1
 10486 10092 10084    1
 10487  5666  5660    1
 10488  4415  4424    2
 10489  6300  6292    1
 10490  5053  5044    1
 10491   623   632    2
 10492  8826  8820    1
 10493  7575  7584    2
 10494  1261  1252    1
 10495  9460  9452    1
 10496  3783  3792    2
 10497  5668  5660    1
 10498  4421  4412    1
 10499  8194  8188    1
 10500  6943  6952    2
 10501   629   620    1
 10502  8828  8820    1
 10503  7581  7572    1
 10504  3151  3160    2
 10505 10103 10112    2
 10506  3789  3780    1
 10507  6311  6320    2
 10508  8196  8188    1
 10509  6949  6940    1
 10510  9471  9480    2
 10511  3157  3148    1
 10512 10109 10100    1
 10513  5679  5688    2
 10514  6317  6308    1
 10515  8839  8848    2
 10516  9477  9468    1
 10517  2503  2497    1
 10518  5685  5676    1
 10519  2500  2511    1
 10520  2500  2495    1
 10521  8207  8216    2
 10522  8845  8836    1
 10523  1871  1865    1
 10524  1868  1879    1
 10525  1868  1863    1
 10526  5031  5025    1
 10527  8213  8204    1
 10528  1239  1233    1
 10529  5028  5039    1
 10530  5028  5023    1
 10531  1236  1247    1
 10532  1236  1231    1
 10533  4399  4393    1
 10534   607   601    1
 10535  4396  4407    1
 10536  4396  4391    1
 10537  7559  7553    1
 10538   604   615    1
 10539   604   599    1
 10540  3767  3761    1
 10541  7556  7567    1
 10542  7556  7551    1
 10543  3764  3775    1
 10544  3764  3759    1
 10545  6927  6921    1
 10546  3135  3129    1
 10547  6924  6935    1
 10548  6924  6919    1
 10549 10087 10081    1
 10550  3132  3143    1
 10551  3132  3127    1
 10552  6295  6289    1
 10553 10084 10095    1
 10554 10084 10079    1
 10555  6292  6303    1
 10556  6292  6287    1
 10557  9455  9449    1
 10558  5663  5657    1
 10559  9452  9463    1
 10560  9452  9447    1
 10561  5660  5671    1
 10562  5660  5655    1
 10563  8823  8817    1
 10564  8820  8831    1
 10565  8820  8815    1
 10566  8191  8185    1
 10567  8188  8199    1
 10568  8188  8183    1
 10569  2514  2528    1
 10570  2514  2527    1
 10571  1882  1896    1
 10572  1882  1895    1
 10573  5042  5056    1
 10574  5042  5055    1
 10575  1250  1264    1
 10576  1250  1263    1
 10577  4410  4424    1
 10578  4410  4423    1
 10579  2528  2516    1
 10580  2528  2520    2
 10581   618   632    1
 10582   618   631    1
 10583  2517  2527    2
 10584  7570  7584    1
 10585  7570  7583    1
 10586  2516  2526    1
 10587  2516  2522    1
 10588  3778  3792    1
 10589  3778  3791    1
 10590  1896  1884    1
 10591  1896  1888    2
 10592  1885  1895    2
 10593  6938  6952    1
 10594  6938  6951    1
 10595  1884  1894    1
 10596  1884  1890    1
 10597  5056  5044    1
 10598  5056  5048    2
 10599  3146  3160    1
 10600  3146  3159    1
 10601  5045  5055    2
 10602 10098 10112    1
 10603 10098 10111    1
 10604  1264  1252    1
 10605  1264  1256    2
 10606  5044  5054    1
 10607  5044  5050    1
 10608  1253  1263    2
 10609  6306  6320    1
 10610  6306  6319    1
 10611  2497  2495    1
 10612  2497  2498    2
 10613  1252  1262    1
 10614  1252  1258    1
 10615  4424  4412    1
 10616  4424  4416    2
 10617  4413  4423    2
 10618  9466  9480    1
 10619  9466  9479    1
 10620   632   620    1
 10621   632   624    2
 10622  4412  4422    1
 10623  4412  4418    1
 10624   621   631    2
 10625  7584  7572    1
 10626  7584  7576    2
 10627  5674  5688    1
 10628  5674  5687    1
 10629  7573  7583    2
 10630  1865  1863    1
 10631  1865  1866    2
 10632   620   630    1
 10633   620   626    1
 10634  3792  3780    1
 10635  3792  3784    2
 10636  7572  7582    1
 10637  7572  7578    1
 10638  3781  3791    2
 10639  8834  8848    1
 10640  8834  8847    1
 10641  5025  5023    1
 10642  5025  5026    2
 10643  3780  3790    1
 10644  3780  3786    1
 10645  6952  6940    1
 10646  6952  6944    2
 10647  6941  6951    2
 10648  1233  1231    1
 10649  1233  1234    2
 10650  3160  3148    1
 10651  3160  3152    2
 10652  6940  6950    1
 10653  6940  6946    1
 10654  3149  3159    2
 10655 10112 10100    1
 10656 10112 10104    2
 10657  8202  8216    1
 10658  8202  8215    1
 10659 10101 10111    2
 10660  4393  4391    1
 10661  4393  4394    2
 10662  2495  2501    1
 10663  3148  3158    1
 10664  3148  3154    1
 10665  6320  6308    1
 10666  6320  6312    2
 10667 10100 10110    1
 10668 10100 10106    1
 10669  6309  6319    2
 10670   601   599    1
 10671   601   602    2
 10672  7553  7551    1
 10673  7553  7554    2
 10674  6308  6318    1
 10675  6308  6314    1
 10676  9480  9468    1
 10677  9480  9472    2
 10678  9469  9479    2
 10679  3761  3759    1
 10680  3761  3762    2
 10681  1863  1869    1
 10682  5688  5676    1
 10683  5688  5680    2
 10684  9468  9478    1
 10685  9468  9474    1
 10686  5677  5687    2
 10687  6921  6919    1
 10688  6921  6922    2
 10689  5023  5029    1
 10690  5676  5686    1
 10691  5676  5682    1
 10692  8848  8836    1
 10693  8848  8840    2
 10694  8837  8847    2
 10695  3129  3127    1
 10696  3129  3130    2
 10697  1231  1237    1
 10698 10081 10079    1
 10699 10081 10082    2
 10700  8836  8846    1
 10701  8836  8842    1
 10702  6289  6287    1
 10703  6289  6290    2
 10704  4391  4397    1
 10705  8216  8204    1
 10706  8216  8208    2
 10707  8205  8215    2
 10708   599   605    1
 10709  9449  9447    1
 10710  9449  9450    2
 10711  7551  7557    1
 10712  8204  8214    1
 10713  8204  8210    1
 10714  5657  5655    1
 10715  5657  5658    2
 10716  3759  3765    1
 10717  8817  8815    1
 10718  8817  8818    2
 10719  6919  6925    1
 10720  3127  3133    1
 10721 10079 10085    1
 10722  8185  8183    1
 10723  8185  8186    2
 10724  6287  6293    1
 10725  9447  9453    1
 10726  5655  5661    1
 10727  8815  8821    1
 10728  2527  2518    2
 10729  2527  2515    1
 10730  8183  8189    1
 10731  1895  1886    2
 10732  1895  1883    1
 10733  5055  5046    2
 10734  5055  5043    1
 10735  1263  1254    2
 10736  1263  1251    1
 10737  4423  4414    2
 10738  4423  4411    1
 10739   631   622    2
 10740   631   619    1
 10741  7583  7574    2
 10742  7583  7571    1
 10743  3791  3782    2
 10744  3791  3779    1
 10745  6951  6942    2
 10746  6951  6939    1
 10747  3159  3150    2
 10748  3159  3147    1
 10749 10111 10102    2
 10750 10111 10099    1
 10751  6319  6310    2
 10752  6319  6307    1
 10753  9479  9470    2
 10754  9479  9467    1
 10755  5687  5678    2
 10756  5687  5675    1
 10757  8847  8838    2
 10758  8847  8835    1
 10759  8215  8206    2
 10760  8215  8203    1
 10761  2498  2504    1
 10762  2498  2496    1
 10763  1866  1872    1
 10764  1866  1864    1
 10765  5026  5032    1
 10766  5026  5024    1
 10767  1234  1240    1
 10768  1234  1232    1
 10769  4394  4400    1
 10770  4394  4392    1
 10771   602   608    1
 10772   602   600    1
 10773  7554  7560    1
 10774  7554  7552    1
 10775  2501  2512    1
 10776  2501  2496    1
 10777  3762  3768    1
 10778  3762  3760    1
 10779  6922  6928    1
 10780  6922  6920    1
 10781  1869  1880    1
 10782  1869  1864    1
 10783  3130  3136    1
 10784  3130  3128    1
 10785 10082 10088    1
 10786 10082 10080    1
 10787  5029  5040    1
 10788  5029  5024    1
 10789  6290  6296    1
 10790  6290  6288    1
 10791  1237  1248    1
 10792  1237  1232    1
 10793  9450  9456    1
 10794  9450  9448    1
 10795  4397  4408    1
 10796  4397  4392    1
 10797  5658  5664    1
 10798  5658  5656    1
 10799   605   616    1
 10800   605   600    1
 10801  7557  7568    1
 10802  7557  7552    1
 10803  8818  8824    1
 10804  8818  8816    1
 10805  3765  3776    1
 10806  3765  3760    1
 10807  6925  6936    1
 10808  6925  6920    1
 10809  8186  8192    1
 10810  8186  8184    1
 10811  3133  3144    1
 10812  3133  3128    1
 10813 10085 10096    1
 10814 10085 10080    1
 10815  6293  6304    1
 10816  6293  6288    1
 10817  9453  9464    1
 10818  9453  9448    1
 10819  2521  2515    1
 10820  5661  5672    1
 10821  5661  5656    1
 10822  8821  8832    1
 10823  8821  8816    1
 10824  1889  1883    1
 10825  5049  5043    1
 10826  8189  8200    1
 10827  8189  8184    1
 10828  1257  1251    1
 10829  4417  4411    1
 10830   625   619    1
 10831  7577  7571    1
 10832  3785  3779    1
 10833  6945  6939    1
 10834  3153  3147    1
 10835 10105 10099    1
 10836  6313  6307    1
 10837  2515  2523    1
 10838  2515  2524    1
 10839  9473  9467    1
 10840  2496  2502    1
 10841  5681  5675    1
 10842  1883  1891    1
 10843  1883  1892    1
 10844  8841  8835    1
 10845  5043  5051    1
 10846  5043  5052    1
 10847  1864  1870    1
 10848  1251  1259    1
 10849  1251  1260    1
 10850  5024  5030    1
 10851  8209  8203    1
 10852  4411  4419    1
 10853  4411  4420    1
 10854  1232  1238    1
 10855   619   627    1
 10856   619   628    1
 10857  7571  7579    1
 10858  7571  7580    1
 10859  4392  4398    1
 10860  3779  3787    1
 10861  3779  3788    1
 10862   600   606    1
 10863  7552  7558    1
 10864  6939  6947    1
 10865  6939  6948    1
 10866  3760  3766    1
 10867  3147  3155    1
 10868  3147  3156    1
 10869 10099 10107    1
 10870 10099 10108    1
 10871  6920  6926    1
 10872  6307  6315    1
 10873  6307  6316    1
 10874  3128  3134    1
 10875 10080 10086    1
 10876  9467  9475    1
 10877  9467  9476    1
 10878  6288  6294    1
 10879  5675  5683    1
 10880  5675  5684    1
 10881  9448  9454    1
 10882  8835  8843    1
 10883  8835  8844    1
 10884  5656  5662    1
 10885  8816  8822    1
 10886  8203  8211    1
 10887  8203  8212    1
 10888  8184  8190    1
 10889  2505  2499    1
 10890  1873  1867    1
 10891  5033  5027    1
 10892  2502  2510    1
 10893  2502  2499    1
 10894  2502  2513    1
 10895  1241  1235    1
 10896  4401  4395    1
 10897  1870  1878    1
 10898  1870  1867    1
 10899  1870  1881    1
 10900  2507  2499    1
 10901   609   603    1
 10902  7561  7555    1
 10903  5030  5038    1
 10904  5030  5027    1
 10905  5030  5041    1
 10906  3769  3763    1
 10907  1238  1246    1
 10908  1238  1235    1
 10909  1238  1249    1
 10910  1875  1867    1
 10911  6929  6923    1
 10912  4398  4406    1
 10913  4398  4395    1
 10914  4398  4409    1
 10915  5035  5027    1
 10916  3137  3131    1
 10917   606   614    1
 10918   606   603    1
 10919   606   617    1
 10920 10089 10083    1
 10921  7558  7566    1
 10922  7558  7555    1
 10923  7558  7569    1
 10924  1243  1235    1
 10925  6297  6291    1
 10926  3766  3774    1
 10927  3766  3763    1
 10928  3766  3777    1
 10929  4403  4395    1
 10930  9457  9451    1
 10931  6926  6934    1
 10932  6926  6923    1
 10933  6926  6937    1
 10934   611   603    1
 10935  7563  7555    1
 10936  5665  5659    1
 10937  3134  3142    1
 10938  3134  3131    1
 10939  3134  3145    1
 10940 10086 10094    1
 10941 10086 10083    1
 10942 10086 10097    1
 10943  3771  3763    1
 10944  8825  8819    1
 10945  6294  6302    1
 10946  6294  6291    1
 10947  6294  6305    1
 10948  6931  6923    1
 10949  9454  9462    1
 10950  9454  9451    1
 10951  9454  9465    1
 10952  3139  3131    1
 10953 10091 10083    1
 10954  8193  8187    1
 10955  5662  5670    1
 10956  5662  5659    1
 10957  5662  5673    1
 10958  6299  6291    1
 10959  8822  8830    1
 10960  8822  8819    1
 10961  8822  8833    1
 10962  2499  2509    1
 10963  9459  9451    1
 10964  5667  5659    1
 10965  8190  8198    1
 10966  8190  8187    1
 10967  8190  8201    1
 10968  1867  1877    1
 10969  8827  8819    1
 10970  5027  5037    1
 10971  1235  1245    1
 10972  8195  8187    1
 10973  4395  4405    1
 10974   603   613    1
 10975  7555  7565    1
 10976  3763  3773    1
 10977  6923  6933    1
 10978  3131  3141    1
 10979 10083 10093    1
 10980  6291  6301    1
 10981  9451  9461    1
 10982  5659  5669    1
 10983  8819  8829    1
 10984  8187  8197    1
