@<TRIPOS>MOLECULE
Lattice="32.018782 0.0 0.0 -14.043870532898428 28.753623292648026 0.0 -8.625062807759862 -14.478403582935226 26.22054754850901" Properties=species:S:1:pos:R:3 i=340 E=-1376.2776932941 pbc="T T T"
 200 164 0 0 0
SMALL
GASTEIGER

@<TRIPOS>ATOM
      1 N           2.6547    3.1656   12.4333 N.3     1  UNL1       -0.2786
      2 N           1.3506    4.2592   13.8000 N.3     1  UNL1       -0.2817
      3 C          -5.8061  -11.8300   11.8888 C.3     1  UNL1       -0.0348
      4 C          -4.6262  -11.1202   11.2264 C.3     1  UNL1       -0.0494
      5 C         -10.2343    4.2621   12.1358 C.3     2  UNL2       -0.0559
      6 C           2.3075    3.3144   13.7246 C.3     1  UNL1        0.0939
      7 C           8.4179  -10.5737   11.7241 C.3     3  UNL3       -0.0309
      8 C           1.0776    4.7190   12.5246 C.3     1  UNL1        0.0458
      9 C          -4.3823   11.9251   -1.6816 C.3     4  UNL4       -0.0681
     10 C           0.6807    4.6922   15.0313 C.3     1  UNL1       -0.0109
     11 H         -11.9938    2.1884   12.6928 H       2  UNL2        0.0265
     12 H          -6.3087  -12.5151   11.1922 H       1  UNL1        0.0306
     13 H          -0.3605   -3.3916   -2.6651 H       5  UNK5        0.0000
     14 H          -4.0424  -11.9037   10.7194 H       1  UNL1        0.0268
     15 H         -10.7997    5.0606   12.6378 H       2  UNL2        0.0263
     16 H          -9.8913    3.5802   12.9285 H       2  UNL2        0.0263
     17 H           2.7250    2.7666   14.5607 H       1  UNL1        0.0662
     18 H          -2.8442   -2.8981   -2.5360 H       6  UNK6        0.0000
     19 H           0.3189    5.4708   12.3435 H       1  UNL1        0.0495
     20 H          -4.6915   12.6223   -2.4738 H       3  UNL3        0.0227
     21 H          -3.7756   11.1285   -2.1369 H       3  UNL3        0.0227
     22 H          -3.7298   12.4795   -0.9934 H       3  UNL3        0.0227
     23 H           0.1538    5.6288   14.8340 H       1  UNL1        0.0391
     24 H          -0.0408    3.9268   15.3430 H       1  UNL1        0.0391
     25 H           1.4285    4.8478   15.8144 H       1  UNL1        0.0391
     26 N          -1.6579   -4.0736   25.5436 N.3     7  UNL7       -0.2735
     27 N          -2.9620   -2.9800   26.9103 N.3     7  UNL7       -0.2813
     28 C         -10.1187  -19.0692   24.9990 C.3     4  UNL4       -0.0309
     29 C          -8.9387  -18.3594   24.3366 C.3     4  UNL4       -0.0309
     30 C         -14.5468   -2.9771   25.2461 C.3     5  UNK5       -0.0497
     31 C          -2.0050   -3.9248   26.8349 C.3     7  UNL7        0.0941
     32 C           4.1053  -17.8129   24.8344 C.3     8  UNL8        0.0000
     33 C          -3.2349   -2.5202   25.6348 C.3     7  UNL7        0.0512
     34 C          -8.6948    4.6859   11.4287 C.3     2  UNL2       -0.0653
     35 C          -3.6318   -2.5470   28.1416 C.3     7  UNL7       -0.0108
     36 H         -16.3063   -5.0508   25.8031 H       5  UNK5        0.0268
     37 H         -10.6212  -19.7543   24.3025 H       4  UNL4        0.0309
     38 H          -4.6730  -10.6308   10.4452 H       1  UNL1        0.0268
     39 H          -8.3549  -19.1429   23.8296 H       4  UNL4        0.0309
     40 H         -15.1122   -2.1786   25.7481 H       5  UNK5        0.0268
     41 H         -14.2039   -3.6590   26.0388 H       5  UNK5        0.0268
     42 H          -1.5875   -4.4726   27.6710 H       7  UNL7        0.0662
     43 H          -7.1568  -10.1373   10.5743 H       9  UNK9        0.0000
     44 H          -3.9937   -1.7684   25.4537 H       7  UNL7        0.0498
     45 H          -9.0041    5.3831   10.6364 H       2  UNL2        0.0230
     46 H          -8.0881    3.8893   10.9734 H       2  UNL2        0.0230
     47 H          -8.0423    5.2403   12.1168 H       2  UNL2        0.0230
     48 H          -4.1587   -1.6104   27.9443 H       7  UNL7        0.0391
     49 H          -4.3533   -3.3124   28.4532 H       7  UNL7        0.0391
     50 H          -2.8840   -2.3914   28.9247 H       7  UNL7        0.0391
     51 N          -4.3673   17.5425   12.4333 N.2    10  UNL10      -0.1411
     52 N          -5.6714   18.6360   13.8000 N.pl3  10  UNL10      -0.3160
     53 C         -12.8281    2.5468   11.8888 C.3     2  UNL2       -0.0531
     54 C         -11.6481    3.2566   11.2264 C.3     2  UNL2       -0.0533
     55 C         -17.2562   18.6389   12.1358 C.3     7  UNL7       -0.0562
     56 C          -4.7144   17.6912   13.7246 C.2    10  UNL10       0.1066
     57 C           1.3959    3.8031   11.7241 C.3     1  UNL1        0.0461
     58 C          -5.9443   19.0958   12.5246 C.3    10  UNL10       0.0645
     59 C         -11.4042   26.3020   -1.6816 C.3    11  UNL11      -0.0681
     60 C          -6.3412   19.0690   15.0313 C.3    10  UNL10       0.0019
     61 H         -19.0157   16.5652   12.6928 H      12  UNK12       0.0000
     62 H         -13.3306    1.8617   11.1922 H       2  UNL2        0.0265
     63 H          -7.3824   10.9852   -2.6651 H      13  UNK13       0.0000
     64 H         -11.0643    2.4731   10.7194 H       2  UNL2        0.0265
     65 H         -17.8216   19.4374   12.6378 H       7  UNL7        0.0263
     66 H         -16.9133   17.9570   12.9285 H       7  UNL7        0.0263
     67 H          -4.2969   17.1434   14.5607 H      10  UNL10       0.1018
     68 H          -9.8662   11.4787   -2.5360 H      14  UNK14       0.0000
     69 H          -6.7031   19.8476   12.3435 H      10  UNL10       0.0538
     70 H         -11.7135   26.9991   -2.4738 H       8  UNL8        0.0227
     71 H         -10.7975   25.5053   -2.1369 H       8  UNL8        0.0227
     72 H         -10.7517   26.8563   -0.9934 H       8  UNL8        0.0227
     73 H          -6.8682   20.0057   14.8340 H      10  UNL10       0.0428
     74 H          -7.0627   18.3036   15.3430 H      10  UNL10       0.0428
     75 H          -5.5934   19.2246   15.8144 H      10  UNL10       0.0428
     76 N          -8.6798   10.3032   25.5436 N.2    15  UNL15      -0.1411
     77 N          -9.9839   11.3968   26.9103 N.pl3  15  UNL15      -0.3160
     78 C         -17.1406   -4.6924   24.9990 C.3     5  UNK5       -0.0497
     79 C         -15.9606   -3.9826   24.3366 C.3     5  UNK5       -0.0382
     80 C         -21.5687   11.3997   25.2461 C.3    16  UNL16      -0.0531
     81 C          -9.0269   10.4520   26.8349 C.2    15  UNL15       0.1066
     82 C          -2.9166   -3.4361   24.8344 C.3     7  UNL7        0.0840
     83 C         -10.2569   11.8566   25.6348 C.3    15  UNL15       0.0645
     84 C         -15.7168   19.0628   11.4287 C.3     7  UNL7       -0.0653
     85 C         -10.6537   11.8298   28.1416 C.3    15  UNL15       0.0019
     86 H         -23.3282    9.3260   25.8031 H      17  UNK17       0.0000
     87 H         -17.6431   -5.3775   24.3025 H       5  UNK5        0.0268
     88 H         -11.6949    3.7460   10.4452 H       2  UNL2        0.0265
     89 H         -15.3768   -4.7661   23.8296 H       5  UNK5        0.0303
     90 H         -22.1342   12.1982   25.7481 H       9  UNK9        0.0265
     91 H         -21.2258   10.7178   26.0388 H       9  UNK9        0.0265
     92 H          -8.6095    9.9042   27.6710 H      15  UNL15       0.1018
     93 H         -14.1787    4.2395   10.5743 H      18  UNK18       0.0000
     94 H         -11.0156   12.6084   25.4537 H      15  UNL15       0.0538
     95 H         -16.0260   19.7599   10.6364 H       7  UNL7        0.0230
     96 H         -15.1101   18.2661   10.9734 H       7  UNL7        0.0230
     97 H         -15.0642   19.6171   12.1168 H       7  UNL7        0.0230
     98 H         -11.1807   12.7664   27.9443 H      15  UNL15       0.0428
     99 H         -11.3752   11.0644   28.4532 H      15  UNL15       0.0428
    100 H          -9.9060   11.9854   28.9247 H      15  UNL15       0.0428
    101 N          18.6641    3.1656   12.4333 N.3    19  UNL19      -0.2064
    102 N          17.3600    4.2592   13.8000 N.3    19  UNL19      -0.2802
    103 C          10.2033  -11.8300   11.8888 C.3    10  UNL10      -0.0348
    104 C          11.3832  -11.1202   11.2264 C.3    10  UNL10      -0.0494
    105 C           5.7751    4.2621   12.1358 C.3     1  UNL1       -0.0548
    106 C          18.3169    3.3144   13.7246 C.3    19  UNL19       0.1087
    107 C          24.4273  -10.5737   11.7241 C.3    20  UNL20       0.0000
    108 C          17.0870    4.7190   12.5246 C.3    19  UNL19       0.0527
    109 C          11.6271   11.9251   -1.6816 C.3    21  UNL21      -0.0681
    110 C          16.6901    4.6922   15.0313 C.3    19  UNL19      -0.0108
    111 H           4.0156    2.1884   12.6928 H       1  UNL1        0.0427
    112 H           9.7007  -12.5151   11.1922 H      10  UNL10       0.0306
    113 H          15.6489   -3.3916   -2.6651 H      22  UNK22       0.0000
    114 H          11.9670  -11.9037   10.7194 H      10  UNL10       0.0268
    115 H           5.2097    5.0606   12.6378 H       1  UNL1        0.0263
    116 H           6.1181    3.5802   12.9285 H       1  UNL1        0.0263
    117 H          18.7344    2.7666   14.5607 H      19  UNL19       0.0675
    118 H          13.1652   -2.8981   -2.5360 H      23  UNK23       0.0000
    119 H          16.3283    5.4708   12.3435 H      19  UNL19       0.0499
    120 H          11.3178   12.6223   -2.4738 H      12  UNK12       0.0227
    121 H          12.2338   11.1285   -2.1369 H      12  UNK12       0.0227
    122 H          12.2796   12.4795   -0.9934 H      12  UNK12       0.0227
    123 H          16.1632    5.6288   14.8340 H      19  UNL19       0.0391
    124 H          15.9686    3.9268   15.3430 H      19  UNL19       0.0391
    125 H          17.4379    4.8478   15.8144 H      19  UNL19       0.0391
    126 N          14.3515   -4.0736   25.5436 N.3    24  UNL24      -0.2064
    127 N          13.0474   -2.9800   26.9103 N.3    24  UNL24      -0.2802
    128 C           5.8907  -19.0692   24.9990 C.3    13  UNK13      -0.0309
    129 C           7.0707  -18.3594   24.3366 C.3    13  UNK13      -0.0309
    130 C           1.4626   -2.9771   25.2461 C.3     7  UNL7       -0.0485
    131 C          14.0044   -3.9248   26.8349 C.3    24  UNL24       0.1087
    132 C          20.1147  -17.8129   24.8344 C.3    25  UNL25       0.0000
    133 C          12.7745   -2.5202   25.6348 C.3    24  UNL24       0.0527
    134 C           7.3146    4.6859   11.4287 C.3     1  UNL1       -0.0652
    135 C          12.3776   -2.5470   28.1416 C.3    24  UNL24      -0.0108
    136 H          -0.2969   -5.0508   25.8031 H       7  UNL7        0.0430
    137 H           5.3882  -19.7543   24.3025 H      13  UNK13       0.0309
    138 H          11.3364  -10.6308   10.4452 H      10  UNL10       0.0268
    139 H           7.6545  -19.1429   23.8296 H      13  UNK13       0.0309
    140 H           0.8972   -2.1786   25.7481 H       7  UNL7        0.0269
    141 H           1.8055   -3.6590   26.0388 H       7  UNL7        0.0269
    142 H          14.4219   -4.4726   27.6710 H      24  UNL24       0.0675
    143 H           8.8526  -10.1373   10.5743 H       2  UNL2        0.0309
    144 H          12.0157   -1.7684   25.4537 H      24  UNL24       0.0499
    145 H           7.0053    5.3831   10.6364 H       1  UNL1        0.0230
    146 H           7.9213    3.8893   10.9734 H       1  UNL1        0.0230
    147 H           7.9671    5.2403   12.1168 H       1  UNL1        0.0230
    148 H          11.8506   -1.6104   27.9443 H      24  UNL24       0.0391
    149 H          11.6561   -3.3124   28.4532 H      24  UNL24       0.0391
    150 H          13.1254   -2.3914   28.9247 H      24  UNL24       0.0391
    151 N          11.6421   17.5425   12.4333 N.2    26  UNL26      -0.1411
    152 N          10.3380   18.6360   13.8000 N.pl3  26  UNL26      -0.3160
    153 C           3.1813    2.5468   11.8888 C.3     1  UNL1        0.0008
    154 C           4.3613    3.2566   11.2264 C.3     1  UNL1       -0.0404
    155 C          -1.2468   18.6389   12.1358 C.3    15  UNL15      -0.0562
    156 C          11.2950   17.6912   13.7246 C.2    26  UNL26       0.1066
    157 C          17.4053    3.8031   11.7241 C.3    19  UNL19       0.1014
    158 C          10.0651   19.0958   12.5246 C.3    26  UNL26       0.0645
    159 C           4.6051   26.3020   -1.6816 C.3    27  UNL27      -0.0681
    160 C           9.6682   19.0690   15.0313 C.3    26  UNL26       0.0019
    161 H          -3.0063   16.5652   12.6928 H      28  UNK28       0.0000
    162 H           2.6788    1.8617   11.1922 H       1  UNL1        0.0427
    163 H           8.6270   10.9852   -2.6651 H      29  UNK29       0.0000
    164 H           4.9451    2.4731   10.7194 H       1  UNL1        0.0277
    165 H          -1.8122   19.4374   12.6378 H      15  UNL15       0.0263
    166 H          -0.9039   17.9570   12.9285 H      15  UNL15       0.0263
    167 H          11.7125   17.1434   14.5607 H      26  UNL26       0.1018
    168 H           6.1432   11.4787   -2.5360 H      30  UNK30       0.0000
    169 H           9.3063   19.8476   12.3435 H      26  UNL26       0.0538
    170 H           4.2959   26.9991   -2.4738 H      16  UNL16       0.0227
    171 H           5.2119   25.5053   -2.1369 H      16  UNL16       0.0227
    172 H           5.2577   26.8563   -0.9934 H      16  UNL16       0.0227
    173 H           9.1412   20.0057   14.8340 H      26  UNL26       0.0428
    174 H           8.9467   18.3036   15.3430 H      26  UNL26       0.0428
    175 H          10.4160   19.2246   15.8144 H      26  UNL26       0.0428
    176 N           7.3296   10.3032   25.5436 N.2    31  UNL31      -0.1411
    177 N           6.0255   11.3968   26.9103 N.pl3  31  UNL31      -0.3160
    178 C          -1.1312   -4.6924   24.9990 C.3     7  UNL7        0.0042
    179 C           0.0487   -3.9826   24.3366 C.3     7  UNL7       -0.0242
    180 C          -5.5593   11.3997   25.2461 C.3    32  UNL32      -0.0531
    181 C           6.9824   10.4520   26.8349 C.2    31  UNL31       0.1066
    182 C          13.0928   -3.4361   24.8344 C.3    24  UNL24       0.1014
    183 C           5.7525   11.8566   25.6348 C.3    31  UNL31       0.0645
    184 C           0.2926   19.0628   11.4287 C.3    15  UNL15      -0.0653
    185 C           5.3557   11.8298   28.1416 C.3    31  UNL31       0.0019
    186 H          -7.3188    9.3260   25.8031 H      33  UNK33       0.0000
    187 H          -1.6337   -5.3775   24.3025 H       7  UNL7        0.0430
    188 H           4.3145    3.7460   10.4452 H       1  UNL1        0.0277
    189 H           0.6326   -4.7661   23.8296 H       7  UNL7        0.0316
    190 H          -6.1248   12.1982   25.7481 H      17  UNK17       0.0265
    191 H          -5.2164   10.7178   26.0388 H      17  UNK17       0.0265
    192 H           7.3999    9.9042   27.6710 H      31  UNL31       0.1018
    193 H           1.8307    4.2395   10.5743 H       1  UNL1        0.0495
    194 H           4.9938   12.6084   25.4537 H      31  UNL31       0.0538
    195 H          -0.0166   19.7599   10.6364 H      15  UNL15       0.0230
    196 H           0.8993   18.2661   10.9734 H      15  UNL15       0.0230
    197 H           0.9452   19.6171   12.1168 H      15  UNL15       0.0230
    198 H           4.8287   12.7664   27.9443 H      31  UNL31       0.0428
    199 H           4.6342   11.0644   28.4532 H      31  UNL31       0.0428
    200 H           6.1034   11.9854   28.9247 H      31  UNL31       0.0428
@<TRIPOS>BOND
     1    20     9    1
     2    70    59    1
     3   170   159    1
     4   120   109    1
     5   171   159    1
     6    21     9    1
     7   121   109    1
     8    71    59    1
     9   159   172    1
    10   109   122    1
    11    59    72    1
    12     9    22    1
    13   188   154    1
    14   138   104    1
    15    88    54    1
    16    38     4    1
    17   193    57    1
    18   143     7    1
    19    95    84    1
    20   145   134    1
    21    45    34    1
    22   195   184    1
    23   114   104    1
    24   164   154    1
    25    14     4    1
    26    64    54    1
    27   146   134    1
    28    46    34    1
    29    96    84    1
    30   196   184    1
    31   162   153    1
    32   112   103    1
    33    62    53    1
    34    12     3    1
    35     4     3    1
    36   104   103    1
    37   154   153    1
    38   154   105    1
    39    54    53    1
    40    54     5    1
    41    84    97    1
    42    84    55    1
    43   184   197    1
    44   184   155    1
    45   134   147    1
    46   134   105    1
    47    34    47    1
    48    34     5    1
    49   157   101    1
    50   157   108    1
    51    57     1    1
    52    57     8    1
    53   153     1    1
    54   153   111    1
    55    53    11    1
    56   155   165    1
    57   155   166    1
    58    55    65    1
    59    55    66    1
    60   105   115    1
    61   105   116    1
    62     5    15    1
    63     5    16    1
    64   169   158    1
    65    69    58    1
    66   119   108    1
    67    19     8    1
    68   101   106    1
    69     1     6    1
    70   151   156    2
    71    51    56    2
    72     8     2    1
    73    58    52    1
    74   108   102    1
    75   158   152    1
    76   156   152    1
    77   156   167    1
    78    56    52    1
    79    56    67    1
    80   106   102    1
    81   106   117    1
    82     6     2    1
    83     6    17    1
    84   152   160    1
    85     2    10    1
    86   102   110    1
    87    52    60    1
    88    23    10    1
    89   173   160    1
    90    73    60    1
    91   123   110    1
    92    10    24    1
    93    10    25    1
    94   160   174    1
    95   160   175    1
    96    60    74    1
    97    60    75    1
    98   110   124    1
    99   110   125    1
   100   189   179    1
   101    39    29    1
   102    89    79    1
   103   139   129    1
   104    37    28    1
   105   187   178    1
   106   137   128    1
   107    87    78    1
   108   129   128    1
   109   179   178    1
   110   179   130    1
   111    79    78    1
   112    79    30    1
   113    29    28    1
   114   182   126    1
   115   182   133    1
   116    82    26    1
   117    82    33    1
   118    78    36    1
   119   178    26    1
   120   178   136    1
   121    80    90    1
   122    80    91    1
   123    30    40    1
   124    30    41    1
   125   180   190    1
   126   180   191    1
   127   130   140    1
   128   130   141    1
   129    44    33    1
   130   144   133    1
   131   194   183    1
   132    94    83    1
   133   126   131    1
   134    26    31    1
   135   176   181    2
   136    76    81    2
   137    33    27    1
   138   183   177    1
   139    83    77    1
   140   133   127    1
   141    81    77    1
   142    81    92    1
   143    31    27    1
   144    31    42    1
   145   131   127    1
   146   131   142    1
   147   181   177    1
   148   181   192    1
   149    27    35    1
   150   127   135    1
   151    77    85    1
   152   177   185    1
   153    98    85    1
   154    48    35    1
   155   148   135    1
   156   198   185    1
   157    85    99    1
   158    85   100    1
   159   185   199    1
   160   185   200    1
   161    35    49    1
   162    35    50    1
   163   135   149    1
   164   135   150    1
